
     RDKit          3D

 63 68  0  0  0  0  0  0  0  0999 V2000
    7.5254    4.7402   25.8902 C   0  0  0  0  0  0  0  0  0  0  0  0
    6.2029    4.1704   25.7044 N   0  0  0  0  0  0  0  0  0  0  0  0
    5.8275    3.4990   24.5810 C   0  0  0  0  0  0  0  0  0  0  0  0
    4.8435    2.7749   24.5555 O   0  0  0  0  0  0  0  0  0  0  0  0
    6.7034    3.7010   23.3336 C   0  0  0  0  0  0  0  0  0  0  0  0
    7.9260    2.8982   23.3548 N   0  0  0  0  0  0  0  0  0  0  0  0
    7.8283    1.4646   23.5590 C   0  0  0  0  0  0  0  0  0  0  0  0
    8.5075    0.6872   22.3966 C   0  0  2  0  0  0  0  0  0  0  0  0
    7.6990    1.0076   21.1203 C   0  0  0  0  0  0  0  0  0  0  0  0
    7.6686    2.0447   20.4955 O   0  0  0  0  0  0  0  0  0  0  0  0
    6.9368   -0.1027   20.8051 N   0  0  0  0  0  0  0  0  0  0  0  0
    5.9138   -0.0382   19.8341 C   0  0  0  0  0  0  0  0  0  0  0  0
    6.0544   -0.7248   18.6580 C   0  0  0  0  0  0  0  0  0  0  0  0
    5.2021   -0.6249   17.6130 N   0  0  0  0  0  0  0  0  0  0  0  0
    4.1531    0.1499   17.7687 C   0  0  0  0  0  0  0  0  0  0  0  0
    3.8385    0.8420   18.9725 C   0  0  0  0  0  0  0  0  0  0  0  0
    2.6643    1.6287   19.1127 C   0  0  0  0  0  0  0  0  0  0  0  0
    2.3445    2.1926   20.3153 C   0  0  0  0  0  0  0  0  0  0  0  0
    3.1869    2.0088   21.4346 C   0  0  0  0  0  0  0  0  0  0  0  0
    4.3480    1.2878   21.3148 C   0  0  0  0  0  0  0  0  0  0  0  0
    4.7190    0.7114   20.0667 C   0  0  0  0  0  0  0  0  0  0  0  0
    7.0649   -1.2109   21.7300 C   0  0  0  0  0  0  0  0  0  0  0  0
    8.3435   -0.8440   22.4939 C   0  0  2  0  0  0  0  0  0  0  0  0
    8.4578   -1.3761   23.9244 C   0  0  0  0  0  0  0  0  0  0  0  0
    8.4120   -2.8201   24.0162 N   0  0  0  0  0  0  0  0  0  0  0  0
    9.4363   -3.6953   24.1396 C   0  0  0  0  0  0  0  0  0  0  0  0
    8.8749   -4.9450   24.2862 C   0  0  0  0  0  0  0  0  0  0  0  0
    7.4875   -4.7109   24.2209 C   0  0  0  0  0  0  0  0  0  0  0  0
    7.2152   -3.4230   24.0459 N   0  0  0  0  0  0  0  0  0  0  0  0
    9.9560    1.1479   22.3453 C   0  0  0  0  0  0  0  0  0  0  0  0
   11.0636    0.2948   22.1501 C   0  0  0  0  0  0  0  0  0  0  0  0
   12.3398    0.8302   22.0672 C   0  0  0  0  0  0  0  0  0  0  0  0
   13.6813   -0.2381   21.7590 Cl  0  0  0  0  0  0  0  0  0  0  0  0
   12.5707    2.2003   22.1832 C   0  0  0  0  0  0  0  0  0  0  0  0
   11.4925    3.0337   22.3963 C   0  0  0  0  0  0  0  0  0  0  0  0
   10.2033    2.5183   22.5348 C   0  0  0  0  0  0  0  0  0  0  0  0
    9.1021    3.4706   22.9540 C   0  0  0  0  0  0  0  0  0  0  0  0
    9.2718    4.6825   22.9632 O   0  0  0  0  0  0  0  0  0  0  0  0
    7.6547    5.0102   26.9383 H   0  0  0  0  0  0  0  0  0  0  0  0
    7.6759    5.6412   25.2839 H   0  0  0  0  0  0  0  0  0  0  0  0
    8.2875    4.0057   25.6137 H   0  0  0  0  0  0  0  0  0  0  0  0
    5.6257    3.9843   26.5157 H   0  0  0  0  0  0  0  0  0  0  0  0
    6.0916    3.4225   22.4626 H   0  0  0  0  0  0  0  0  0  0  0  0
    7.0024    4.7473   23.2318 H   0  0  0  0  0  0  0  0  0  0  0  0
    6.7680    1.2124   23.6217 H   0  0  0  0  0  0  0  0  0  0  0  0
    8.3078    1.2123   24.5135 H   0  0  0  0  0  0  0  0  0  0  0  0
    6.9146   -1.3797   18.5201 H   0  0  0  0  0  0  0  0  0  0  0  0
    3.4742    0.2267   16.9216 H   0  0  0  0  0  0  0  0  0  0  0  0
    2.0362    1.7792   18.2414 H   0  0  0  0  0  0  0  0  0  0  0  0
    1.4379    2.7809   20.4166 H   0  0  0  0  0  0  0  0  0  0  0  0
    2.9270    2.4460   22.3925 H   0  0  0  0  0  0  0  0  0  0  0  0
    4.9785    1.1446   22.1884 H   0  0  0  0  0  0  0  0  0  0  0  0
    7.1794   -2.1513   21.1828 H   0  0  0  0  0  0  0  0  0  0  0  0
    6.1855   -1.3209   22.3845 H   0  0  0  0  0  0  0  0  0  0  0  0
    9.1559   -1.2734   21.9057 H   0  0  0  0  0  0  0  0  0  0  0  0
    9.3974   -1.0206   24.3662 H   0  0  0  0  0  0  0  0  0  0  0  0
    7.6294   -1.0077   24.5376 H   0  0  0  0  0  0  0  0  0  0  0  0
   10.4716   -3.3695   24.1116 H   0  0  0  0  0  0  0  0  0  0  0  0
    9.3874   -5.8818   24.4713 H   0  0  0  0  0  0  0  0  0  0  0  0
    6.6752   -5.4200   24.3202 H   0  0  0  0  0  0  0  0  0  0  0  0
   10.9842   -0.7863   22.0418 H   0  0  0  0  0  0  0  0  0  0  0  0
   13.5734    2.6113   22.1050 H   0  0  0  0  0  0  0  0  0  0  0  0
   11.6302    4.1059   22.4738 H   0  0  0  0  0  0  0  0  0  0  0  0
  1  2  1  0
  2  3  1  0
  3  4  2  0
  3  5  1  0
  5  6  1  0
  6  7  1  0
  8  7  1  1
  8  9  1  0
  9 10  2  0
  9 11  1  0
 11 12  1  0
 12 13  2  0
 13 14  1  0
 14 15  2  0
 15 16  1  0
 16 17  2  0
 17 18  1  0
 18 19  2  0
 19 20  1  0
 20 21  2  0
 11 22  1  0
 22 23  1  0
 23 24  1  0
 24 25  1  0
 25 26  1  0
 26 27  2  0
 27 28  1  0
 28 29  2  0
  8 30  1  0
 30 31  2  0
 31 32  1  0
 32 33  1  0
 32 34  2  0
 34 35  1  0
 35 36  2  0
 36 37  1  0
 37 38  2  0
 37  6  1  0
 23  8  1  0
 29 25  1  0
 36 30  1  0
 21 12  1  0
 21 16  1  0
  1 39  1  0
  1 40  1  0
  1 41  1  0
  2 42  1  0
  5 43  1  0
  5 44  1  0
  7 45  1  0
  7 46  1  0
 13 47  1  0
 15 48  1  0
 17 49  1  0
 18 50  1  0
 19 51  1  0
 20 52  1  0
 22 53  1  0
 22 54  1  0
 23 55  1  6
 24 56  1  0
 24 57  1  0
 26 58  1  0
 27 59  1  0
 28 60  1  0
 31 61  1  0
 34 62  1  0
 35 63  1  0
M  END
$$$$
