
     RDKit          3D

 57 61  0  0  0  0  0  0  0  0999 V2000
    7.2949    4.6526   22.3748 C   0  0  0  0  0  0  0  0  0  0  0  0
    8.0996    3.7309   23.1508 N   0  0  0  0  0  0  0  0  0  0  0  0
    7.8363    3.5823   24.4669 C   0  0  0  0  0  0  0  0  0  0  0  0
    7.0610    4.2986   25.0868 O   0  0  0  0  0  0  0  0  0  0  0  0
    8.5545    2.4591   25.2256 C   0  0  0  0  0  0  0  0  0  0  0  0
    9.3853    1.5665   24.4594 N   0  0  0  0  0  0  0  0  0  0  0  0
    8.9384    0.2067   24.2157 C   0  0  0  0  0  0  0  0  0  0  0  0
    9.4935   -0.3306   22.8727 C   0  0  2  0  0  0  0  0  0  0  0  0
    8.8461    0.4824   21.7167 C   0  0  0  0  0  0  0  0  0  0  0  0
    9.0998    1.6369   21.4224 O   0  0  0  0  0  0  0  0  0  0  0  0
    7.8904   -0.2923   21.1047 N   0  0  0  0  0  0  0  0  0  0  0  0
    7.0025    0.1865   20.0968 C   0  0  0  0  0  0  0  0  0  0  0  0
    7.2086   -0.1931   18.7926 C   0  0  0  0  0  0  0  0  0  0  0  0
    6.4018    0.1438   17.7559 N   0  0  0  0  0  0  0  0  0  0  0  0
    5.3603    0.8941   18.0159 C   0  0  0  0  0  0  0  0  0  0  0  0
    5.0318    1.3727   19.3161 C   0  0  0  0  0  0  0  0  0  0  0  0
    3.9296    2.2413   19.5342 C   0  0  0  0  0  0  0  0  0  0  0  0
    3.6152    2.6526   20.7980 C   0  0  0  0  0  0  0  0  0  0  0  0
    4.3804    2.2187   21.9024 C   0  0  0  0  0  0  0  0  0  0  0  0
    5.4812    1.4174   21.7128 C   0  0  0  0  0  0  0  0  0  0  0  0
    5.8544    0.9915   20.4057 C   0  0  0  0  0  0  0  0  0  0  0  0
    7.6576   -1.5409   21.8079 C   0  0  0  0  0  0  0  0  0  0  0  0
    8.9905   -1.7567   22.5277 C   0  0  2  0  0  0  0  0  0  0  0  0
    8.9002   -2.7637   23.6718 C   0  0  0  0  0  0  0  0  0  0  0  0
   10.1531   -3.0888   24.2385 O   0  0  0  0  0  0  0  0  0  0  0  0
   11.0004   -0.1794   22.9423 C   0  0  0  0  0  0  0  0  0  0  0  0
   11.9088   -1.1291   22.4591 C   0  0  0  0  0  0  0  0  0  0  0  0
   13.2537   -0.8123   22.3776 C   0  0  0  0  0  0  0  0  0  0  0  0
   14.3234   -1.9391   21.5869 Cl  0  0  0  0  0  0  0  0  0  0  0  0
   13.7638    0.3957   22.8546 C   0  0  0  0  0  0  0  0  0  0  0  0
   12.8853    1.2962   23.4212 C   0  0  0  0  0  0  0  0  0  0  0  0
   11.5256    1.0036   23.4804 C   0  0  0  0  0  0  0  0  0  0  0  0
   10.6309    2.0125   24.1181 C   0  0  0  0  0  0  0  0  0  0  0  0
   10.9867    3.1689   24.3110 O   0  0  0  0  0  0  0  0  0  0  0  0
    7.4026    4.3963   21.3154 H   0  0  0  0  0  0  0  0  0  0  0  0
    6.2435    4.5513   22.6647 H   0  0  0  0  0  0  0  0  0  0  0  0
    7.5716    5.7059   22.5197 H   0  0  0  0  0  0  0  0  0  0  0  0
    8.6154    3.0233   22.6268 H   0  0  0  0  0  0  0  0  0  0  0  0
    9.1477    2.9331   26.0129 H   0  0  0  0  0  0  0  0  0  0  0  0
    7.7700    1.8830   25.7210 H   0  0  0  0  0  0  0  0  0  0  0  0
    9.2626   -0.4511   25.0344 H   0  0  0  0  0  0  0  0  0  0  0  0
    7.8434    0.2013   24.1909 H   0  0  0  0  0  0  0  0  0  0  0  0
    8.0787   -0.7974   18.5383 H   0  0  0  0  0  0  0  0  0  0  0  0
    4.7214    1.1823   17.1796 H   0  0  0  0  0  0  0  0  0  0  0  0
    3.3499    2.5669   18.6743 H   0  0  0  0  0  0  0  0  0  0  0  0
    2.7762    3.3197   20.9635 H   0  0  0  0  0  0  0  0  0  0  0  0
    4.1209    2.5516   22.9042 H   0  0  0  0  0  0  0  0  0  0  0  0
    6.0760    1.1158   22.5703 H   0  0  0  0  0  0  0  0  0  0  0  0
    7.4172   -2.3273   21.0866 H   0  0  0  0  0  0  0  0  0  0  0  0
    6.8202   -1.4593   22.5251 H   0  0  0  0  0  0  0  0  0  0  0  0
    9.6723   -2.1499   21.7678 H   0  0  0  0  0  0  0  0  0  0  0  0
    8.1959   -2.3960   24.4357 H   0  0  0  0  0  0  0  0  0  0  0  0
    8.4917   -3.7098   23.3008 H   0  0  0  0  0  0  0  0  0  0  0  0
   10.5640   -2.2836   24.5788 H   0  0  0  0  0  0  0  0  0  0  0  0
   11.5974   -2.1157   22.1267 H   0  0  0  0  0  0  0  0  0  0  0  0
   14.8230    0.6104   22.7634 H   0  0  0  0  0  0  0  0  0  0  0  0
   13.2302    2.2522   23.7997 H   0  0  0  0  0  0  0  0  0  0  0  0
  1  2  1  0
  2  3  1  0
  3  4  2  0
  3  5  1  0
  5  6  1  0
  6  7  1  0
  8  7  1  1
  8  9  1  0
  9 10  2  0
  9 11  1  0
 11 12  1  0
 12 13  2  0
 13 14  1  0
 14 15  2  0
 15 16  1  0
 16 17  2  0
 17 18  1  0
 18 19  2  0
 19 20  1  0
 20 21  2  0
 11 22  1  0
 22 23  1  0
 23 24  1  0
 24 25  1  0
  8 26  1  0
 26 27  2  0
 27 28  1  0
 28 29  1  0
 28 30  2  0
 30 31  1  0
 31 32  2  0
 32 33  1  0
 33 34  2  0
 33  6  1  0
 23  8  1  0
 32 26  1  0
 21 12  1  0
 21 16  1  0
  1 35  1  0
  1 36  1  0
  1 37  1  0
  2 38  1  0
  5 39  1  0
  5 40  1  0
  7 41  1  0
  7 42  1  0
 13 43  1  0
 15 44  1  0
 17 45  1  0
 18 46  1  0
 19 47  1  0
 20 48  1  0
 22 49  1  0
 22 50  1  0
 23 51  1  6
 24 52  1  0
 24 53  1  0
 25 54  1  0
 27 55  1  0
 30 56  1  0
 31 57  1  0
M  END
$$$$
