
     RDKit          3D

 46 47  0  0  0  0  0  0  0  0999 V2000
   -8.6498   -3.1609  -23.8013 C   0  0  0  0  0  0  0  0  0  0  0  0
   -8.8775   -1.8682  -23.0326 C   0  0  2  0  0  0  0  0  0  0  0  0
   -8.2312   -1.8424  -21.7265 N   0  0  0  0  0  0  0  0  0  0  0  0
   -6.9225   -1.4483  -21.6619 C   0  0  0  0  0  0  0  0  0  0  0  0
   -6.2686   -1.1773  -22.6537 O   0  0  0  0  0  0  0  0  0  0  0  0
   -6.3201   -1.3909  -20.2656 C   0  0  0  0  0  0  0  0  0  0  0  0
   -5.8415   -2.7082  -19.9274 O   0  0  0  0  0  0  0  0  0  0  0  0
   -6.3039   -3.2721  -18.4936 S   0  0  0  0  0  0  0  0  0  0  0  0
   -5.7127   -2.0993  -17.4613 N   0  0  0  0  0  0  0  0  0  0  0  0
   -7.7491   -3.2082  -18.4209 O   0  0  0  0  0  0  0  0  0  0  0  0
   -5.5654   -4.4981  -18.3379 O   0  0  0  0  0  0  0  0  0  0  0  0
  -10.3330   -1.4686  -22.9203 C   0  0  0  0  0  0  0  0  0  0  0  0
  -11.4165   -2.3436  -22.8465 C   0  0  0  0  0  0  0  0  0  0  0  0
  -12.7011   -1.8101  -22.7650 C   0  0  0  0  0  0  0  0  0  0  0  0
  -14.0495   -2.8973  -22.6275 Cl  0  0  0  0  0  0  0  0  0  0  0  0
  -12.9381   -0.4438  -22.8311 C   0  0  0  0  0  0  0  0  0  0  0  0
  -11.8574    0.4295  -22.9749 C   0  0  0  0  0  0  0  0  0  0  0  0
  -12.0298    1.8629  -23.3296 C   0  0  0  0  0  0  0  0  0  0  0  0
  -12.9287    2.7426  -22.7157 C   0  0  0  0  0  0  0  0  0  0  0  0
  -13.0925    4.0404  -23.2073 C   0  0  0  0  0  0  0  0  0  0  0  0
  -12.3426    4.4525  -24.3116 C   0  0  0  0  0  0  0  0  0  0  0  0
  -12.6762    5.9479  -25.2061 S   0  0  0  0  0  0  0  0  0  0  0  0
  -11.1601    6.3906  -25.7627 N   0  0  0  0  0  0  0  0  0  0  0  0
  -13.4296    5.6155  -26.4018 O   0  0  0  0  0  0  0  0  0  0  0  0
  -13.1635    6.9452  -24.2739 O   0  0  0  0  0  0  0  0  0  0  0  0
  -11.3895    3.6148  -24.8717 C   0  0  0  0  0  0  0  0  0  0  0  0
  -11.2446    2.3381  -24.3857 C   0  0  0  0  0  0  0  0  0  0  0  0
  -10.5710   -0.1010  -22.9652 C   0  0  0  0  0  0  0  0  0  0  0  0
   -9.1434   -4.0116  -23.3211 H   0  0  0  0  0  0  0  0  0  0  0  0
   -7.5739   -3.3525  -23.8638 H   0  0  0  0  0  0  0  0  0  0  0  0
   -9.0425   -3.0522  -24.8183 H   0  0  0  0  0  0  0  0  0  0  0  0
   -8.3743   -1.0696  -23.5904 H   0  0  0  0  0  0  0  0  0  0  0  0
   -8.6439   -2.3616  -20.9594 H   0  0  0  0  0  0  0  0  0  0  0  0
   -5.4520   -0.7344  -20.2721 H   0  0  0  0  0  0  0  0  0  0  0  0
   -7.0549   -1.0413  -19.5351 H   0  0  0  0  0  0  0  0  0  0  0  0
   -4.8983   -2.4442  -16.9572 H   0  0  0  0  0  0  0  0  0  0  0  0
   -6.4418   -1.8509  -16.7962 H   0  0  0  0  0  0  0  0  0  0  0  0
  -11.2865   -3.4231  -22.8550 H   0  0  0  0  0  0  0  0  0  0  0  0
  -13.9546   -0.0636  -22.8134 H   0  0  0  0  0  0  0  0  0  0  0  0
  -13.4589    2.4142  -21.8223 H   0  0  0  0  0  0  0  0  0  0  0  0
  -13.8098    4.7226  -22.7609 H   0  0  0  0  0  0  0  0  0  0  0  0
  -10.7607    7.1562  -25.2342 H   0  0  0  0  0  0  0  0  0  0  0  0
  -11.1880    6.5837  -26.7583 H   0  0  0  0  0  0  0  0  0  0  0  0
  -10.7640    3.9695  -25.6811 H   0  0  0  0  0  0  0  0  0  0  0  0
  -10.5180    1.6863  -24.8565 H   0  0  0  0  0  0  0  0  0  0  0  0
   -9.7178    0.5766  -23.0084 H   0  0  0  0  0  0  0  0  0  0  0  0
  1  2  1  0
  2  3  1  0
  3  4  1  0
  4  5  2  0
  4  6  1  0
  6  7  1  0
  7  8  1  0
  8  9  1  0
  8 10  2  0
  8 11  2  0
  2 12  1  0
 12 13  2  0
 13 14  1  0
 14 15  1  0
 14 16  2  0
 16 17  1  0
 17 18  1  0
 18 19  2  0
 19 20  1  0
 20 21  2  0
 21 22  1  0
 22 23  1  0
 22 24  2  0
 22 25  2  0
 21 26  1  0
 26 27  2  0
 17 28  2  0
 28 12  1  0
 27 18  1  0
  1 29  1  0
  1 30  1  0
  1 31  1  0
  2 32  1  6
  3 33  1  0
  6 34  1  0
  6 35  1  0
  9 36  1  0
  9 37  1  0
 13 38  1  0
 16 39  1  0
 19 40  1  0
 20 41  1  0
 23 42  1  0
 23 43  1  0
 26 44  1  0
 27 45  1  0
 28 46  1  0
M  END
$$$$

     RDKit          3D

 40 44  0  0  0  0  0  0  0  0999 V2000
   -8.0152    1.5620  -24.6844 C   0  0  0  0  0  0  0  0  0  0  0  0
   -7.1041    0.3795  -24.9101 C   0  0  0  0  0  0  0  0  0  0  0  0
   -5.9019    0.5035  -25.0947 O   0  0  0  0  0  0  0  0  0  0  0  0
   -7.6880   -0.8514  -24.9079 N   0  0  0  0  0  0  0  0  0  0  0  0
   -6.8323   -2.0596  -24.8769 C   0  0  0  0  0  0  0  0  0  0  0  0
   -7.8227   -3.1061  -24.3216 C   0  0  2  0  0  0  0  0  0  0  0  0
   -9.1416   -2.6195  -24.9521 C   0  0  0  0  0  0  0  0  0  0  0  0
   -9.0117   -1.2121  -24.3299 C   0  0  1  0  0  0  0  0  0  0  0  0
   -8.8064   -1.5776  -22.9217 C   0  0  0  0  0  0  0  0  0  0  0  0
   -8.5670   -0.8587  -21.7080 C   0  0  0  0  0  0  0  0  0  0  0  0
   -9.0210    0.1700  -21.2641 O   0  0  0  0  0  0  0  0  0  0  0  0
   -7.5748   -1.6519  -21.0631 N   0  0  0  0  0  0  0  0  0  0  0  0
   -6.7003   -1.1178  -20.0810 C   0  0  0  0  0  0  0  0  0  0  0  0
   -6.9672   -1.3698  -18.7649 C   0  0  0  0  0  0  0  0  0  0  0  0
   -6.2434   -0.8782  -17.7300 N   0  0  0  0  0  0  0  0  0  0  0  0
   -5.2489   -0.0739  -18.0166 C   0  0  0  0  0  0  0  0  0  0  0  0
   -4.9162    0.3338  -19.3455 C   0  0  0  0  0  0  0  0  0  0  0  0
   -3.9186    1.3125  -19.6047 C   0  0  0  0  0  0  0  0  0  0  0  0
   -3.5846    1.6477  -20.8862 C   0  0  0  0  0  0  0  0  0  0  0  0
   -4.2203    1.0031  -21.9739 C   0  0  0  0  0  0  0  0  0  0  0  0
   -5.2164    0.0826  -21.7539 C   0  0  0  0  0  0  0  0  0  0  0  0
   -5.6254   -0.2369  -20.4245 C   0  0  0  0  0  0  0  0  0  0  0  0
   -7.2399   -2.7897  -21.8157 C   0  0  0  0  0  0  0  0  0  0  0  0
   -6.3927   -3.6010  -21.5414 O   0  0  0  0  0  0  0  0  0  0  0  0
   -8.1005   -2.7534  -22.9049 N   0  0  0  0  0  0  0  0  0  0  0  0
   -8.8114    1.5976  -25.4337 H   0  0  0  0  0  0  0  0  0  0  0  0
   -7.3957    2.4546  -24.7480 H   0  0  0  0  0  0  0  0  0  0  0  0
   -8.4836    1.5047  -23.6982 H   0  0  0  0  0  0  0  0  0  0  0  0
   -6.4422   -2.2868  -25.8729 H   0  0  0  0  0  0  0  0  0  0  0  0
   -5.9850   -1.9149  -24.2014 H   0  0  0  0  0  0  0  0  0  0  0  0
   -7.5285   -4.1481  -24.4157 H   0  0  0  0  0  0  0  0  0  0  0  0
  -10.0077   -3.1811  -24.6053 H   0  0  0  0  0  0  0  0  0  0  0  0
   -9.1002   -2.5761  -26.0408 H   0  0  0  0  0  0  0  0  0  0  0  0
   -9.7766   -0.4543  -24.5039 H   0  0  0  0  0  0  0  0  0  0  0  0
   -7.8283   -1.9813  -18.5154 H   0  0  0  0  0  0  0  0  0  0  0  0
   -4.6923    0.3512  -17.1789 H   0  0  0  0  0  0  0  0  0  0  0  0
   -3.4179    1.7773  -18.7593 H   0  0  0  0  0  0  0  0  0  0  0  0
   -2.8569    2.4347  -21.0756 H   0  0  0  0  0  0  0  0  0  0  0  0
   -3.9358    1.2418  -22.9960 H   0  0  0  0  0  0  0  0  0  0  0  0
   -5.6880   -0.3906  -22.6127 H   0  0  0  0  0  0  0  0  0  0  0  0
  1  2  1  0
  2  3  2  0
  2  4  1  0
  4  5  1  0
  5  6  1  0
  6  7  1  0
  7  8  1  0
  8  9  1  0
  9 10  2  0
 10 11  1  0
 10 12  1  0
 12 13  1  0
 13 14  2  0
 14 15  1  0
 15 16  2  0
 16 17  1  0
 17 18  2  0
 18 19  1  0
 19 20  2  0
 20 21  1  0
 21 22  2  0
 12 23  1  0
 23 24  2  0
 23 25  1  0
  8  4  1  0
 25  9  1  0
 25  6  1  0
 22 13  1  0
 22 17  1  0
  1 26  1  0
  1 27  1  0
  1 28  1  0
  5 29  1  0
  5 30  1  0
  6 31  1  1
  7 32  1  0
  7 33  1  0
  8 34  1  1
 14 35  1  0
 16 36  1  0
 18 37  1  0
 19 38  1  0
 20 39  1  0
 21 40  1  0
M  CHG  1  11  -1
M  END
$$$$

     RDKit          3D

 56 60  0  0  0  0  0  0  0  0999 V2000
   -7.0110    3.6340  -22.4916 C   0  0  0  0  0  0  0  0  0  0  0  0
   -7.8012    2.6979  -23.2672 N   0  0  0  0  0  0  0  0  0  0  0  0
   -7.5114    2.5257  -24.5754 C   0  0  0  0  0  0  0  0  0  0  0  0
   -6.7344    3.2310  -25.2038 O   0  0  0  0  0  0  0  0  0  0  0  0
   -8.1575    1.3533  -25.3168 C   0  0  0  0  0  0  0  0  0  0  0  0
   -8.9901    0.4556  -24.5597 N   0  0  0  0  0  0  0  0  0  0  0  0
   -8.5122   -0.8894  -24.2735 C   0  0  0  0  0  0  0  0  0  0  0  0
   -9.0702   -1.4209  -22.9330 C   0  0  2  0  0  0  0  0  0  0  0  0
   -8.4748   -0.5719  -21.7855 C   0  0  0  0  0  0  0  0  0  0  0  0
   -8.7829    0.5711  -21.5062 O   0  0  0  0  0  0  0  0  0  0  0  0
   -7.5082   -1.3050  -21.1400 N   0  0  0  0  0  0  0  0  0  0  0  0
   -6.6605   -0.7889  -20.1224 C   0  0  0  0  0  0  0  0  0  0  0  0
   -6.8855   -1.1465  -18.8169 C   0  0  0  0  0  0  0  0  0  0  0  0
   -6.1191   -0.7568  -17.7694 N   0  0  0  0  0  0  0  0  0  0  0  0
   -5.0951    0.0239  -18.0093 C   0  0  0  0  0  0  0  0  0  0  0  0
   -4.7552    0.4840  -19.3149 C   0  0  0  0  0  0  0  0  0  0  0  0
   -3.6635    1.3654  -19.5327 C   0  0  0  0  0  0  0  0  0  0  0  0
   -3.3222    1.7615  -20.7966 C   0  0  0  0  0  0  0  0  0  0  0  0
   -4.0567    1.2864  -21.9037 C   0  0  0  0  0  0  0  0  0  0  0  0
   -5.1424    0.4611  -21.7203 C   0  0  0  0  0  0  0  0  0  0  0  0
   -5.5322    0.0461  -20.4142 C   0  0  0  0  0  0  0  0  0  0  0  0
   -7.2231   -2.5611  -21.8031 C   0  0  0  0  0  0  0  0  0  0  0  0
   -8.5296   -2.8260  -22.5602 C   0  0  2  0  0  0  0  0  0  0  0  0
   -8.4215   -3.8194  -23.7093 C   0  0  0  0  0  0  0  0  0  0  0  0
  -10.5810   -1.2983  -23.0399 C   0  0  0  0  0  0  0  0  0  0  0  0
  -11.4732   -2.2526  -22.5429 C   0  0  0  0  0  0  0  0  0  0  0  0
  -12.8298   -1.9788  -22.4892 C   0  0  0  0  0  0  0  0  0  0  0  0
  -13.8612   -3.1105  -21.6519 Cl  0  0  0  0  0  0  0  0  0  0  0  0
  -13.3685   -0.8054  -23.0187 C   0  0  0  0  0  0  0  0  0  0  0  0
  -12.5007    0.1086  -23.5887 C   0  0  0  0  0  0  0  0  0  0  0  0
  -11.1296   -0.1441  -23.6174 C   0  0  0  0  0  0  0  0  0  0  0  0
  -10.2548    0.8787  -24.2621 C   0  0  0  0  0  0  0  0  0  0  0  0
  -10.6392    2.0197  -24.4807 O   0  0  0  0  0  0  0  0  0  0  0  0
   -7.3060    4.6761  -22.6457 H   0  0  0  0  0  0  0  0  0  0  0  0
   -7.1415    3.3850  -21.4371 H   0  0  0  0  0  0  0  0  0  0  0  0
   -5.9505    3.5505  -22.7489 H   0  0  0  0  0  0  0  0  0  0  0  0
   -8.3439    2.0083  -22.7580 H   0  0  0  0  0  0  0  0  0  0  0  0
   -7.3397    0.7763  -25.7616 H   0  0  0  0  0  0  0  0  0  0  0  0
   -8.7368    1.7784  -26.1403 H   0  0  0  0  0  0  0  0  0  0  0  0
   -7.4184   -0.8610  -24.2269 H   0  0  0  0  0  0  0  0  0  0  0  0
   -8.8089   -1.5779  -25.0756 H   0  0  0  0  0  0  0  0  0  0  0  0
   -7.7550   -1.7486  -18.5586 H   0  0  0  0  0  0  0  0  0  0  0  0
   -4.5108    0.3690  -17.1516 H   0  0  0  0  0  0  0  0  0  0  0  0
   -3.1240    1.7310  -18.6666 H   0  0  0  0  0  0  0  0  0  0  0  0
   -2.4988    2.4543  -20.9547 H   0  0  0  0  0  0  0  0  0  0  0  0
   -3.7835    1.6049  -22.9067 H   0  0  0  0  0  0  0  0  0  0  0  0
   -5.7101    0.1176  -22.5793 H   0  0  0  0  0  0  0  0  0  0  0  0
   -6.9668   -3.3314  -21.0723 H   0  0  0  0  0  0  0  0  0  0  0  0
   -6.3680   -2.4750  -22.4922 H   0  0  0  0  0  0  0  0  0  0  0  0
   -9.2312   -3.1996  -21.8106 H   0  0  0  0  0  0  0  0  0  0  0  0
   -7.6635   -3.5045  -24.4349 H   0  0  0  0  0  0  0  0  0  0  0  0
   -8.1347   -4.8166  -23.3645 H   0  0  0  0  0  0  0  0  0  0  0  0
   -9.3729   -3.9126  -24.2455 H   0  0  0  0  0  0  0  0  0  0  0  0
  -11.1239   -3.1808  -22.1074 H   0  0  0  0  0  0  0  0  0  0  0  0
  -14.4327   -0.6017  -22.9233 H   0  0  0  0  0  0  0  0  0  0  0  0
  -12.8508    1.0503  -24.0005 H   0  0  0  0  0  0  0  0  0  0  0  0
  1  2  1  0
  2  3  1  0
  3  4  2  0
  3  5  1  0
  5  6  1  0
  6  7  1  0
  8  7  1  6
  8  9  1  0
  9 10  2  0
  9 11  1  0
 11 12  1  0
 12 13  2  0
 13 14  1  0
 14 15  2  0
 15 16  1  0
 16 17  2  0
 17 18  1  0
 18 19  2  0
 19 20  1  0
 20 21  2  0
 11 22  1  0
 22 23  1  0
 23 24  1  0
  8 25  1  0
 25 26  2  0
 26 27  1  0
 27 28  1  0
 27 29  2  0
 29 30  1  0
 30 31  2  0
 31 32  1  0
 32 33  2  0
 32  6  1  0
 23  8  1  0
 31 25  1  0
 21 12  1  0
 21 16  1  0
  1 34  1  0
  1 35  1  0
  1 36  1  0
  2 37  1  0
  5 38  1  0
  5 39  1  0
  7 40  1  0
  7 41  1  0
 13 42  1  0
 15 43  1  0
 17 44  1  0
 18 45  1  0
 19 46  1  0
 20 47  1  0
 22 48  1  0
 22 49  1  0
 23 50  1  1
 24 51  1  0
 24 52  1  0
 24 53  1  0
 26 54  1  0
 29 55  1  0
 30 56  1  0
M  END
$$$$

     RDKit          3D

 49 50  0  0  0  0  0  0  0  0999 V2000
   -8.7601   -4.4266  -17.2097 C   0  0  0  0  0  0  0  0  0  0  0  0
   -7.4141   -4.1015  -17.7172 N   0  0  0  0  0  0  0  0  0  0  0  0
   -6.9595   -2.6562  -18.3151 S   0  0  0  0  0  0  0  0  0  0  0  0
   -8.1051   -1.7775  -18.4077 O   0  0  0  0  0  0  0  0  0  0  0  0
   -5.7409   -2.1988  -17.6848 O   0  0  0  0  0  0  0  0  0  0  0  0
   -6.5602   -3.0879  -19.8355 O   0  0  0  0  0  0  0  0  0  0  0  0
   -6.0140   -1.9758  -20.5752 C   0  0  0  0  0  0  0  0  0  0  0  0
   -6.8099   -1.7338  -21.8459 C   0  0  0  0  0  0  0  0  0  0  0  0
   -6.2735   -1.2507  -22.8315 O   0  0  0  0  0  0  0  0  0  0  0  0
   -8.1341   -2.0379  -21.7931 N   0  0  0  0  0  0  0  0  0  0  0  0
   -8.8788   -1.9706  -23.0473 C   0  0  1  0  0  0  0  0  0  0  0  0
   -8.7437   -3.2351  -23.8950 C   0  0  0  0  0  0  0  0  0  0  0  0
  -10.3108   -1.5099  -22.8686 C   0  0  0  0  0  0  0  0  0  0  0  0
  -11.4101   -2.3653  -22.8260 C   0  0  0  0  0  0  0  0  0  0  0  0
  -12.6917   -1.8218  -22.7501 C   0  0  0  0  0  0  0  0  0  0  0  0
  -14.0553   -2.8981  -22.6505 Cl  0  0  0  0  0  0  0  0  0  0  0  0
  -12.9167   -0.4529  -22.8096 C   0  0  0  0  0  0  0  0  0  0  0  0
  -11.8219    0.4080  -22.9408 C   0  0  0  0  0  0  0  0  0  0  0  0
  -11.9768    1.8478  -23.3042 C   0  0  0  0  0  0  0  0  0  0  0  0
  -12.9108    2.7179  -22.7242 C   0  0  0  0  0  0  0  0  0  0  0  0
  -13.0896    4.0061  -23.2339 C   0  0  0  0  0  0  0  0  0  0  0  0
  -12.3519    4.4076  -24.3506 C   0  0  0  0  0  0  0  0  0  0  0  0
  -12.7334    5.9134  -25.2105 S   0  0  0  0  0  0  0  0  0  0  0  0
  -11.2128    6.3655  -25.7446 N   0  0  0  0  0  0  0  0  0  0  0  0
  -13.2600    6.8571  -24.2408 O   0  0  0  0  0  0  0  0  0  0  0  0
  -13.4770    5.6509  -26.4320 O   0  0  0  0  0  0  0  0  0  0  0  0
  -11.3596    3.5885  -24.8843 C   0  0  0  0  0  0  0  0  0  0  0  0
  -11.1827    2.3265  -24.3559 C   0  0  0  0  0  0  0  0  0  0  0  0
  -10.5374   -0.1362  -22.9063 C   0  0  0  0  0  0  0  0  0  0  0  0
   -8.6909   -5.0576  -16.3166 H   0  0  0  0  0  0  0  0  0  0  0  0
   -9.2794   -3.4900  -17.0203 H   0  0  0  0  0  0  0  0  0  0  0  0
   -9.3494   -5.0234  -17.9063 H   0  0  0  0  0  0  0  0  0  0  0  0
   -6.8376   -4.8471  -18.0792 H   0  0  0  0  0  0  0  0  0  0  0  0
   -4.9863   -2.2172  -20.8488 H   0  0  0  0  0  0  0  0  0  0  0  0
   -6.0098   -1.0664  -19.9637 H   0  0  0  0  0  0  0  0  0  0  0  0
   -8.5224   -2.5190  -20.9894 H   0  0  0  0  0  0  0  0  0  0  0  0
   -8.3747   -1.1748  -23.6060 H   0  0  0  0  0  0  0  0  0  0  0  0
   -7.6820   -3.4072  -24.1034 H   0  0  0  0  0  0  0  0  0  0  0  0
   -9.2601   -3.0760  -24.8500 H   0  0  0  0  0  0  0  0  0  0  0  0
   -9.1558   -4.1265  -23.4055 H   0  0  0  0  0  0  0  0  0  0  0  0
  -11.2881   -3.4442  -22.8537 H   0  0  0  0  0  0  0  0  0  0  0  0
  -13.9348   -0.0671  -22.7947 H   0  0  0  0  0  0  0  0  0  0  0  0
  -13.4862    2.3860  -21.8608 H   0  0  0  0  0  0  0  0  0  0  0  0
  -13.7967    4.6957  -22.7763 H   0  0  0  0  0  0  0  0  0  0  0  0
  -11.2585    6.6003  -26.7282 H   0  0  0  0  0  0  0  0  0  0  0  0
  -10.8131    7.1231  -25.2066 H   0  0  0  0  0  0  0  0  0  0  0  0
  -10.7150    3.9503  -25.6820 H   0  0  0  0  0  0  0  0  0  0  0  0
  -10.4248    1.6792  -24.7890 H   0  0  0  0  0  0  0  0  0  0  0  0
   -9.6841    0.5398  -22.9338 H   0  0  0  0  0  0  0  0  0  0  0  0
  1  2  1  0
  2  3  1  0
  3  4  2  0
  3  5  2  0
  3  6  1  0
  6  7  1  0
  7  8  1  0
  8  9  2  0
  8 10  1  0
 10 11  1  0
 11 12  1  0
 11 13  1  0
 13 14  2  0
 14 15  1  0
 15 16  1  0
 15 17  2  0
 17 18  1  0
 18 19  1  0
 19 20  2  0
 20 21  1  0
 21 22  2  0
 22 23  1  0
 23 24  1  0
 23 25  2  0
 23 26  2  0
 22 27  1  0
 27 28  2  0
 18 29  2  0
 29 13  1  0
 28 19  1  0
  1 30  1  0
  1 31  1  0
  1 32  1  0
  2 33  1  0
  7 34  1  0
  7 35  1  0
 10 36  1  0
 11 37  1  6
 12 38  1  0
 12 39  1  0
 12 40  1  0
 14 41  1  0
 17 42  1  0
 20 43  1  0
 21 44  1  0
 24 45  1  0
 24 46  1  0
 27 47  1  0
 28 48  1  0
 29 49  1  0
M  END
$$$$

     RDKit          3D

 59 63  0  0  0  0  0  0  0  0999 V2000
   -7.0220    3.6281  -22.4643 C   0  0  0  0  0  0  0  0  0  0  0  0
   -7.7524    2.6453  -23.2318 N   0  0  0  0  0  0  0  0  0  0  0  0
   -7.4796    2.5057  -24.5450 C   0  0  0  0  0  0  0  0  0  0  0  0
   -6.7216    3.2440  -25.1602 O   0  0  0  0  0  0  0  0  0  0  0  0
   -8.1631    1.3586  -25.3027 C   0  0  0  0  0  0  0  0  0  0  0  0
   -8.9776    0.4638  -24.5102 N   0  0  0  0  0  0  0  0  0  0  0  0
   -8.5123   -0.8883  -24.2749 C   0  0  0  0  0  0  0  0  0  0  0  0
   -9.0768   -1.4952  -22.9515 C   0  0  2  0  0  0  0  0  0  0  0  0
   -8.4945   -0.6400  -21.7806 C   0  0  0  0  0  0  0  0  0  0  0  0
   -8.8274    0.4919  -21.4829 O   0  0  0  0  0  0  0  0  0  0  0  0
   -7.4749   -1.3348  -21.1728 N   0  0  0  0  0  0  0  0  0  0  0  0
   -6.6498   -0.8006  -20.1315 C   0  0  0  0  0  0  0  0  0  0  0  0
   -6.8790   -1.1527  -18.8215 C   0  0  0  0  0  0  0  0  0  0  0  0
   -6.1032   -0.7792  -17.7728 N   0  0  0  0  0  0  0  0  0  0  0  0
   -5.0688   -0.0160  -18.0252 C   0  0  0  0  0  0  0  0  0  0  0  0
   -4.7306    0.4553  -19.3240 C   0  0  0  0  0  0  0  0  0  0  0  0
   -3.6438    1.3477  -19.5290 C   0  0  0  0  0  0  0  0  0  0  0  0
   -3.3221    1.7583  -20.7915 C   0  0  0  0  0  0  0  0  0  0  0  0
   -4.0555    1.2891  -21.9033 C   0  0  0  0  0  0  0  0  0  0  0  0
   -5.1319    0.4533  -21.7286 C   0  0  0  0  0  0  0  0  0  0  0  0
   -5.5159    0.0290  -20.4233 C   0  0  0  0  0  0  0  0  0  0  0  0
   -7.0769   -2.4981  -21.9437 C   0  0  0  0  0  0  0  0  0  0  0  0
   -8.3916   -2.9056  -22.6716 C   0  0  0  0  0  0  0  0  0  0  0  0
   -8.1502   -3.7400  -23.9361 C   0  0  0  0  0  0  0  0  0  0  0  0
   -9.1229   -3.7801  -21.6484 C   0  0  0  0  0  0  0  0  0  0  0  0
  -10.6089   -1.3484  -23.0608 C   0  0  0  0  0  0  0  0  0  0  0  0
  -11.5609   -2.2823  -22.6310 C   0  0  0  0  0  0  0  0  0  0  0  0
  -12.9023   -1.9542  -22.5797 C   0  0  0  0  0  0  0  0  0  0  0  0
  -13.9902   -3.0827  -21.8270 Cl  0  0  0  0  0  0  0  0  0  0  0  0
  -13.4077   -0.7604  -23.0804 C   0  0  0  0  0  0  0  0  0  0  0  0
  -12.5055    0.1307  -23.6114 C   0  0  0  0  0  0  0  0  0  0  0  0
  -11.1407   -0.1589  -23.6045 C   0  0  0  0  0  0  0  0  0  0  0  0
  -10.2510    0.8628  -24.2254 C   0  0  0  0  0  0  0  0  0  0  0  0
  -10.6413    1.9988  -24.4646 O   0  0  0  0  0  0  0  0  0  0  0  0
   -7.1457    3.4012  -21.4014 H   0  0  0  0  0  0  0  0  0  0  0  0
   -7.3585    4.6549  -22.6586 H   0  0  0  0  0  0  0  0  0  0  0  0
   -5.9640    3.5672  -22.7383 H   0  0  0  0  0  0  0  0  0  0  0  0
   -8.2737    1.9375  -22.7143 H   0  0  0  0  0  0  0  0  0  0  0  0
   -8.7665    1.8018  -26.1048 H   0  0  0  0  0  0  0  0  0  0  0  0
   -7.3684    0.7787  -25.7877 H   0  0  0  0  0  0  0  0  0  0  0  0
   -7.4199   -0.8559  -24.2258 H   0  0  0  0  0  0  0  0  0  0  0  0
   -8.7959   -1.5217  -25.1229 H   0  0  0  0  0  0  0  0  0  0  0  0
   -7.7262   -1.7916  -18.5779 H   0  0  0  0  0  0  0  0  0  0  0  0
   -4.4378    0.2859  -17.1891 H   0  0  0  0  0  0  0  0  0  0  0  0
   -3.0867    1.7047  -18.6653 H   0  0  0  0  0  0  0  0  0  0  0  0
   -2.4968    2.4446  -20.9520 H   0  0  0  0  0  0  0  0  0  0  0  0
   -3.7850    1.6163  -22.9045 H   0  0  0  0  0  0  0  0  0  0  0  0
   -5.7019    0.1369  -22.5973 H   0  0  0  0  0  0  0  0  0  0  0  0
   -6.2491   -2.2724  -22.6396 H   0  0  0  0  0  0  0  0  0  0  0  0
   -6.7306   -3.2700  -21.2512 H   0  0  0  0  0  0  0  0  0  0  0  0
   -9.0898   -3.8723  -24.4882 H   0  0  0  0  0  0  0  0  0  0  0  0
   -7.7720   -4.7322  -23.6652 H   0  0  0  0  0  0  0  0  0  0  0  0
   -7.4309   -3.2735  -24.6177 H   0  0  0  0  0  0  0  0  0  0  0  0
   -8.4366   -4.5185  -21.2189 H   0  0  0  0  0  0  0  0  0  0  0  0
   -9.9284   -4.3471  -22.1151 H   0  0  0  0  0  0  0  0  0  0  0  0
   -9.5124   -3.1622  -20.8400 H   0  0  0  0  0  0  0  0  0  0  0  0
  -11.3195   -3.2729  -22.2953 H   0  0  0  0  0  0  0  0  0  0  0  0
  -14.4650   -0.5290  -23.0401 H   0  0  0  0  0  0  0  0  0  0  0  0
  -12.8279    1.0818  -24.0209 H   0  0  0  0  0  0  0  0  0  0  0  0
  1  2  1  0
  2  3  1  0
  3  4  2  0
  3  5  1  0
  5  6  1  0
  6  7  1  0
  8  7  1  6
  8  9  1  0
  9 10  2  0
  9 11  1  0
 11 12  1  0
 12 13  2  0
 13 14  1  0
 14 15  2  0
 15 16  1  0
 16 17  2  0
 17 18  1  0
 18 19  2  0
 19 20  1  0
 20 21  2  0
 11 22  1  0
 22 23  1  0
 23 24  1  0
 23 25  1  0
  8 26  1  0
 26 27  2  0
 27 28  1  0
 28 29  1  0
 28 30  2  0
 30 31  1  0
 31 32  2  0
 32 33  1  0
 33 34  2  0
 33  6  1  0
 23  8  1  0
 32 26  1  0
 21 12  1  0
 21 16  1  0
  1 35  1  0
  1 36  1  0
  1 37  1  0
  2 38  1  0
  5 39  1  0
  5 40  1  0
  7 41  1  0
  7 42  1  0
 13 43  1  0
 15 44  1  0
 17 45  1  0
 18 46  1  0
 19 47  1  0
 20 48  1  0
 22 49  1  0
 22 50  1  0
 24 51  1  0
 24 52  1  0
 24 53  1  0
 25 54  1  0
 25 55  1  0
 25 56  1  0
 27 57  1  0
 30 58  1  0
 31 59  1  0
M  END
$$$$

     RDKit          3D

 40 44  0  0  0  0  0  0  0  0999 V2000
   -6.5528   -3.6607  -21.5260 O   0  0  0  0  0  0  0  0  0  0  0  0
   -7.4110   -2.8435  -21.7457 C   0  0  0  0  0  0  0  0  0  0  0  0
   -8.4421   -2.9176  -22.6616 N   0  0  0  0  0  0  0  0  0  0  0  0
   -8.9856   -1.5959  -22.9696 C   0  0  1  0  0  0  0  0  0  0  0  0
   -8.2871   -0.9697  -24.2000 C   0  0  0  0  0  0  0  0  0  0  0  0
   -9.0575    0.2593  -24.6466 C   0  0  0  0  0  0  0  0  0  0  0  0
  -10.3951   -0.0733  -25.0183 O   0  0  0  0  0  0  0  0  0  0  0  0
  -11.0948   -0.8162  -24.1362 C   0  0  0  0  0  0  0  0  0  0  0  0
  -12.4807   -0.8202  -24.2302 C   0  0  0  0  0  0  0  0  0  0  0  0
  -13.1860   -1.5468  -23.2859 C   0  0  0  0  0  0  0  0  0  0  0  0
  -12.6256   -2.2885  -22.3261 N   0  0  0  0  0  0  0  0  0  0  0  0
  -11.2969   -2.3043  -22.2823 C   0  0  0  0  0  0  0  0  0  0  0  0
  -10.4780   -1.5883  -23.1525 C   0  0  0  0  0  0  0  0  0  0  0  0
   -8.5683   -0.8498  -21.6862 C   0  0  0  0  0  0  0  0  0  0  0  0
   -9.0106    0.1680  -21.2309 O   0  0  0  0  0  0  0  0  0  0  0  0
   -7.5461   -1.6041  -21.1088 N   0  0  0  0  0  0  0  0  0  0  0  0
   -6.6720   -1.1135  -20.1053 C   0  0  0  0  0  0  0  0  0  0  0  0
   -6.9471   -1.3743  -18.7939 C   0  0  0  0  0  0  0  0  0  0  0  0
   -6.2238   -0.9008  -17.7486 N   0  0  0  0  0  0  0  0  0  0  0  0
   -5.2273   -0.0927  -18.0150 C   0  0  0  0  0  0  0  0  0  0  0  0
   -4.8804    0.3215  -19.3377 C   0  0  0  0  0  0  0  0  0  0  0  0
   -3.8981    1.3145  -19.5951 C   0  0  0  0  0  0  0  0  0  0  0  0
   -3.5717    1.6571  -20.8775 C   0  0  0  0  0  0  0  0  0  0  0  0
   -4.1811    0.9953  -21.9709 C   0  0  0  0  0  0  0  0  0  0  0  0
   -5.1608    0.0607  -21.7468 C   0  0  0  0  0  0  0  0  0  0  0  0
   -5.5785   -0.2491  -20.4245 C   0  0  0  0  0  0  0  0  0  0  0  0
   -8.2695   -3.5590  -23.4198 H   0  0  0  0  0  0  0  0  0  0  0  0
   -8.2562   -1.7116  -25.0065 H   0  0  0  0  0  0  0  0  0  0  0  0
   -7.2503   -0.7057  -23.9557 H   0  0  0  0  0  0  0  0  0  0  0  0
   -8.6237    0.7237  -25.5346 H   0  0  0  0  0  0  0  0  0  0  0  0
   -9.0835    0.9970  -23.8359 H   0  0  0  0  0  0  0  0  0  0  0  0
  -12.9664   -0.2368  -25.0043 H   0  0  0  0  0  0  0  0  0  0  0  0
  -14.2726   -1.5220  -23.2886 H   0  0  0  0  0  0  0  0  0  0  0  0
  -10.8288   -2.9156  -21.5128 H   0  0  0  0  0  0  0  0  0  0  0  0
   -7.8151   -1.9799  -18.5527 H   0  0  0  0  0  0  0  0  0  0  0  0
   -4.6779    0.3256  -17.1648 H   0  0  0  0  0  0  0  0  0  0  0  0
   -3.4052    1.7897  -18.7505 H   0  0  0  0  0  0  0  0  0  0  0  0
   -2.8594    2.4575  -21.0674 H   0  0  0  0  0  0  0  0  0  0  0  0
   -3.8924    1.2385  -22.9907 H   0  0  0  0  0  0  0  0  0  0  0  0
   -5.6243   -0.4465  -22.5869 H   0  0  0  0  0  0  0  0  0  0  0  0
  1  2  2  0
  2  3  1  0
  4  3  1  1
  4  5  1  0
  5  6  1  0
  6  7  1  0
  7  8  1  0
  8  9  2  0
  9 10  1  0
 10 11  2  0
 11 12  1  0
 12 13  2  0
  4 14  1  0
 14 15  2  0
 14 16  1  0
 16 17  1  0
 17 18  2  0
 18 19  1  0
 19 20  2  0
 20 21  1  0
 21 22  2  0
 22 23  1  0
 23 24  2  0
 24 25  1  0
 25 26  2  0
 16  2  1  0
 26 17  1  0
 13  4  1  0
 26 21  1  0
 13  8  1  0
  3 27  1  0
  5 28  1  0
  5 29  1  0
  6 30  1  0
  6 31  1  0
  9 32  1  0
 10 33  1  0
 12 34  1  0
 18 35  1  0
 20 36  1  0
 22 37  1  0
 23 38  1  0
 24 39  1  0
 25 40  1  0
M  END
$$$$

     RDKit          3D

 36 38  0  0  0  0  0  0  0  0999 V2000
   -8.1581   -0.2472  -21.4184 O   0  0  0  0  0  0  0  0  0  0  0  0
   -7.6777   -1.3155  -21.7162 C   0  0  0  0  0  0  0  0  0  0  0  0
   -6.6508   -2.0370  -20.8463 C   0  0  0  0  0  0  0  0  0  0  0  0
   -5.9074   -1.1467  -19.8811 C   0  0  0  0  0  0  0  0  0  0  0  0
   -6.2640   -1.1225  -18.5597 C   0  0  0  0  0  0  0  0  0  0  0  0
   -5.6179   -0.4502  -17.5692 N   0  0  0  0  0  0  0  0  0  0  0  0
   -4.5771    0.2681  -17.9225 C   0  0  0  0  0  0  0  0  0  0  0  0
   -4.1064    0.3768  -19.2625 C   0  0  0  0  0  0  0  0  0  0  0  0
   -2.9862    1.1826  -19.6032 C   0  0  0  0  0  0  0  0  0  0  0  0
   -2.5272    1.2347  -20.8915 C   0  0  0  0  0  0  0  0  0  0  0  0
   -3.1890    0.4996  -21.9046 C   0  0  0  0  0  0  0  0  0  0  0  0
   -4.2920   -0.2675  -21.6106 C   0  0  0  0  0  0  0  0  0  0  0  0
   -4.7827   -0.3556  -20.2776 C   0  0  0  0  0  0  0  0  0  0  0  0
   -7.9916   -1.9573  -22.9117 N   0  0  0  0  0  0  0  0  0  0  0  0
   -8.2934   -3.3823  -22.9201 C   0  0  0  0  0  0  0  0  0  0  0  0
   -9.5941   -3.7585  -22.2468 C   0  0  0  0  0  0  0  0  0  0  0  0
  -10.7498   -3.1023  -22.3945 C   0  0  0  0  0  0  0  0  0  0  0  0
  -11.0219   -1.8858  -23.1849 C   0  0  0  0  0  0  0  0  0  0  0  0
  -10.1745   -1.0724  -23.8253 C   0  0  0  0  0  0  0  0  0  0  0  0
   -8.6771   -1.1718  -23.9233 C   0  0  0  0  0  0  0  0  0  0  0  0
   -7.1748   -2.8156  -20.2754 H   0  0  0  0  0  0  0  0  0  0  0  0
   -5.9484   -2.5534  -21.5109 H   0  0  0  0  0  0  0  0  0  0  0  0
   -7.1308   -1.6958  -18.2325 H   0  0  0  0  0  0  0  0  0  0  0  0
   -4.1167    0.8738  -17.1399 H   0  0  0  0  0  0  0  0  0  0  0  0
   -2.5007    1.7518  -18.8104 H   0  0  0  0  0  0  0  0  0  0  0  0
   -1.6581    1.8405  -21.1433 H   0  0  0  0  0  0  0  0  0  0  0  0
   -2.8175    0.5491  -22.9256 H   0  0  0  0  0  0  0  0  0  0  0  0
   -4.7958   -0.8225  -22.4016 H   0  0  0  0  0  0  0  0  0  0  0  0
   -8.3283   -3.6749  -23.9755 H   0  0  0  0  0  0  0  0  0  0  0  0
   -7.4607   -3.9266  -22.4626 H   0  0  0  0  0  0  0  0  0  0  0  0
   -9.5716   -4.6356  -21.5977 H   0  0  0  0  0  0  0  0  0  0  0  0
  -11.6265   -3.4942  -21.8826 H   0  0  0  0  0  0  0  0  0  0  0  0
  -12.0774   -1.6281  -23.2433 H   0  0  0  0  0  0  0  0  0  0  0  0
  -10.5868   -0.2073  -24.3481 H   0  0  0  0  0  0  0  0  0  0  0  0
   -8.4125   -1.6263  -24.8860 H   0  0  0  0  0  0  0  0  0  0  0  0
   -8.2343   -0.1713  -23.9250 H   0  0  0  0  0  0  0  0  0  0  0  0
  1  2  2  0
  2  3  1  0
  3  4  1  0
  4  5  2  0
  5  6  1  0
  6  7  2  0
  7  8  1  0
  8  9  2  0
  9 10  1  0
 10 11  2  0
 11 12  1  0
 12 13  2  0
  2 14  1  0
 14 15  1  0
 15 16  1  0
 16 17  2  0
 17 18  1  0
 18 19  2  0
 19 20  1  0
 13  4  1  0
 20 14  1  0
 13  8  1  0
  3 21  1  0
  3 22  1  0
  5 23  1  0
  7 24  1  0
  9 25  1  0
 10 26  1  0
 11 27  1  0
 12 28  1  0
 15 29  1  0
 15 30  1  0
 16 31  1  0
 17 32  1  0
 18 33  1  0
 19 34  1  0
 20 35  1  0
 20 36  1  0
M  END
$$$$

     RDKit          3D

 66 71  0  0  0  0  0  0  0  0999 V2000
   -7.0173    3.6302  -22.4781 C   0  0  0  0  0  0  0  0  0  0  0  0
   -7.7707    2.6688  -23.2579 N   0  0  0  0  0  0  0  0  0  0  0  0
   -7.4867    2.5193  -24.5718 C   0  0  0  0  0  0  0  0  0  0  0  0
   -6.7235    3.2506  -25.1866 O   0  0  0  0  0  0  0  0  0  0  0  0
   -8.1583    1.3625  -25.3223 C   0  0  0  0  0  0  0  0  0  0  0  0
   -8.9830    0.4679  -24.5507 N   0  0  0  0  0  0  0  0  0  0  0  0
   -8.5106   -0.8802  -24.2785 C   0  0  0  0  0  0  0  0  0  0  0  0
   -9.0730   -1.4223  -22.9386 C   0  0  2  0  0  0  0  0  0  0  0  0
   -8.4725   -0.5761  -21.7846 C   0  0  0  0  0  0  0  0  0  0  0  0
   -8.7607    0.5752  -21.5081 O   0  0  0  0  0  0  0  0  0  0  0  0
   -7.5081   -1.3105  -21.1412 N   0  0  0  0  0  0  0  0  0  0  0  0
   -6.6613   -0.7882  -20.1214 C   0  0  0  0  0  0  0  0  0  0  0  0
   -6.8861   -1.1486  -18.8156 C   0  0  0  0  0  0  0  0  0  0  0  0
   -6.1172   -0.7657  -17.7671 N   0  0  0  0  0  0  0  0  0  0  0  0
   -5.0888    0.0079  -18.0163 C   0  0  0  0  0  0  0  0  0  0  0  0
   -4.7445    0.4706  -19.3182 C   0  0  0  0  0  0  0  0  0  0  0  0
   -3.6584    1.3626  -19.5273 C   0  0  0  0  0  0  0  0  0  0  0  0
   -3.3280    1.7602  -20.7920 C   0  0  0  0  0  0  0  0  0  0  0  0
   -4.0580    1.2857  -21.9049 C   0  0  0  0  0  0  0  0  0  0  0  0
   -5.1382    0.4563  -21.7245 C   0  0  0  0  0  0  0  0  0  0  0  0
   -5.5291    0.0432  -20.4177 C   0  0  0  0  0  0  0  0  0  0  0  0
   -7.2208   -2.5585  -21.8191 C   0  0  0  0  0  0  0  0  0  0  0  0
   -8.5262   -2.8310  -22.5766 C   0  0  2  0  0  0  0  0  0  0  0  0
   -8.3841   -3.8571  -23.7163 C   0  0  0  0  0  0  0  0  0  0  0  0
   -9.7299   -4.2945  -24.2678 C   0  0  0  0  0  0  0  0  0  0  0  0
  -10.5782   -5.0567  -23.4638 C   0  0  0  0  0  0  0  0  0  0  0  0
  -11.8781   -5.3428  -23.8548 C   0  0  0  0  0  0  0  0  0  0  0  0
  -12.2953   -5.0583  -25.1488 C   0  0  0  0  0  0  0  0  0  0  0  0
  -11.4423   -4.3602  -25.9904 C   0  0  0  0  0  0  0  0  0  0  0  0
  -10.1938   -3.9387  -25.5365 C   0  0  0  0  0  0  0  0  0  0  0  0
  -10.5818   -1.2883  -23.0411 C   0  0  0  0  0  0  0  0  0  0  0  0
  -11.4721   -2.2227  -22.5187 C   0  0  0  0  0  0  0  0  0  0  0  0
  -12.8285   -1.9640  -22.5018 C   0  0  0  0  0  0  0  0  0  0  0  0
  -13.8626   -3.1446  -21.7397 Cl  0  0  0  0  0  0  0  0  0  0  0  0
  -13.3715   -0.7942  -23.0291 C   0  0  0  0  0  0  0  0  0  0  0  0
  -12.5034    0.1157  -23.5925 C   0  0  0  0  0  0  0  0  0  0  0  0
  -11.1341   -0.1385  -23.6197 C   0  0  0  0  0  0  0  0  0  0  0  0
  -10.2528    0.8820  -24.2605 C   0  0  0  0  0  0  0  0  0  0  0  0
  -10.6393    2.0208  -24.4966 O   0  0  0  0  0  0  0  0  0  0  0  0
   -5.9611    3.5565  -22.7411 H   0  0  0  0  0  0  0  0  0  0  0  0
   -7.1458    3.3856  -21.4186 H   0  0  0  0  0  0  0  0  0  0  0  0
   -7.3300    4.6640  -22.6536 H   0  0  0  0  0  0  0  0  0  0  0  0
   -8.3190    1.9849  -22.7444 H   0  0  0  0  0  0  0  0  0  0  0  0
   -7.3504    0.7901  -25.7868 H   0  0  0  0  0  0  0  0  0  0  0  0
   -8.7446    1.8014  -26.1360 H   0  0  0  0  0  0  0  0  0  0  0  0
   -8.8151   -1.5543  -25.0883 H   0  0  0  0  0  0  0  0  0  0  0  0
   -7.4172   -0.8628  -24.2362 H   0  0  0  0  0  0  0  0  0  0  0  0
   -7.7384   -1.7816  -18.5709 H   0  0  0  0  0  0  0  0  0  0  0  0
   -4.4818    0.3346  -17.1706 H   0  0  0  0  0  0  0  0  0  0  0  0
   -3.1038    1.7205  -18.6627 H   0  0  0  0  0  0  0  0  0  0  0  0
   -2.5015    2.4442  -20.9535 H   0  0  0  0  0  0  0  0  0  0  0  0
   -3.7862    1.6099  -22.9074 H   0  0  0  0  0  0  0  0  0  0  0  0
   -5.7042    0.1200  -22.5889 H   0  0  0  0  0  0  0  0  0  0  0  0
   -6.9895   -3.3307  -21.0828 H   0  0  0  0  0  0  0  0  0  0  0  0
   -6.3706   -2.4729  -22.5204 H   0  0  0  0  0  0  0  0  0  0  0  0
   -9.2156   -3.2450  -21.8331 H   0  0  0  0  0  0  0  0  0  0  0  0
   -7.7521   -3.4422  -24.5122 H   0  0  0  0  0  0  0  0  0  0  0  0
   -7.8639   -4.7457  -23.3301 H   0  0  0  0  0  0  0  0  0  0  0  0
  -10.2484   -5.3539  -22.4715 H   0  0  0  0  0  0  0  0  0  0  0  0
  -12.5620   -5.7649  -23.1366 H   0  0  0  0  0  0  0  0  0  0  0  0
  -13.2674   -5.3824  -25.5046 H   0  0  0  0  0  0  0  0  0  0  0  0
  -11.7541   -4.1323  -27.0090 H   0  0  0  0  0  0  0  0  0  0  0  0
   -9.5825   -3.3269  -26.1976 H   0  0  0  0  0  0  0  0  0  0  0  0
  -11.1372   -3.1455  -22.0731 H   0  0  0  0  0  0  0  0  0  0  0  0
  -14.4389   -0.6076  -22.9740 H   0  0  0  0  0  0  0  0  0  0  0  0
  -12.8651    1.0482  -24.0114 H   0  0  0  0  0  0  0  0  0  0  0  0
  1  2  1  0
  2  3  1  0
  3  4  2  0
  3  5  1  0
  5  6  1  0
  6  7  1  0
  8  7  1  6
  8  9  1  0
  9 10  2  0
  9 11  1  0
 11 12  1  0
 12 13  2  0
 13 14  1  0
 14 15  2  0
 15 16  1  0
 16 17  2  0
 17 18  1  0
 18 19  2  0
 19 20  1  0
 20 21  2  0
 11 22  1  0
 22 23  1  0
 23 24  1  0
 24 25  1  0
 25 26  2  0
 26 27  1  0
 27 28  2  0
 28 29  1  0
 29 30  2  0
  8 31  1  0
 31 32  2  0
 32 33  1  0
 33 34  1  0
 33 35  2  0
 35 36  1  0
 36 37  2  0
 37 38  1  0
 38 39  2  0
 38  6  1  0
 23  8  1  0
 30 25  1  0
 37 31  1  0
 21 12  1  0
 21 16  1  0
  1 40  1  0
  1 41  1  0
  1 42  1  0
  2 43  1  0
  5 44  1  0
  5 45  1  0
  7 46  1  0
  7 47  1  0
 13 48  1  0
 15 49  1  0
 17 50  1  0
 18 51  1  0
 19 52  1  0
 20 53  1  0
 22 54  1  0
 22 55  1  0
 23 56  1  1
 24 57  1  0
 24 58  1  0
 26 59  1  0
 27 60  1  0
 28 61  1  0
 29 62  1  0
 30 63  1  0
 32 64  1  0
 35 65  1  0
 36 66  1  0
M  END
$$$$

     RDKit          3D

 58 61  0  0  0  0  0  0  0  0999 V2000
   -4.7820   -3.0055  -22.4018 C   0  0  0  0  0  0  0  0  0  0  0  0
   -6.0650   -3.3459  -22.3359 C   0  0  0  0  0  0  0  0  0  0  0  0
   -7.0322   -3.0600  -21.2179 C   0  0  0  0  0  0  0  0  0  0  0  0
   -7.2912   -1.6266  -21.0610 N   0  0  0  0  0  0  0  0  0  0  0  0
   -8.2115   -0.9116  -21.8145 C   0  0  0  0  0  0  0  0  0  0  0  0
   -8.4912    0.2359  -21.5055 O   0  0  0  0  0  0  0  0  0  0  0  0
   -8.8462   -1.5177  -23.0879 C   0  0  2  0  0  0  0  0  0  0  0  0
   -8.2112   -0.8647  -24.3358 C   0  0  0  0  0  0  0  0  0  0  0  0
   -8.6900    0.4972  -24.5467 N   0  0  0  0  0  0  0  0  0  0  0  0
   -7.8320    1.4565  -25.2032 C   0  0  0  0  0  0  0  0  0  0  0  0
   -7.2885    2.6147  -24.3547 C   0  0  0  0  0  0  0  0  0  0  0  0
   -6.5929    3.4563  -24.9058 O   0  0  0  0  0  0  0  0  0  0  0  0
   -7.5879    2.6420  -23.0371 N   0  0  0  0  0  0  0  0  0  0  0  0
   -6.8914    3.5865  -22.1888 C   0  0  0  0  0  0  0  0  0  0  0  0
   -9.9826    0.8904  -24.3104 C   0  0  0  0  0  0  0  0  0  0  0  0
  -10.3752    2.0205  -24.5672 O   0  0  0  0  0  0  0  0  0  0  0  0
  -10.8732   -0.1288  -23.6810 C   0  0  0  0  0  0  0  0  0  0  0  0
  -12.2429    0.1337  -23.6326 C   0  0  0  0  0  0  0  0  0  0  0  0
  -13.1058   -0.7762  -23.0516 C   0  0  0  0  0  0  0  0  0  0  0  0
  -12.5783   -1.9513  -22.5156 C   0  0  0  0  0  0  0  0  0  0  0  0
  -13.6438   -3.0848  -21.7299 Cl  0  0  0  0  0  0  0  0  0  0  0  0
  -11.2165   -2.2149  -22.5550 C   0  0  0  0  0  0  0  0  0  0  0  0
  -10.3435   -1.2892  -23.1259 C   0  0  0  0  0  0  0  0  0  0  0  0
   -6.5762   -0.9400  -20.0268 C   0  0  0  0  0  0  0  0  0  0  0  0
   -6.8883   -1.2073  -18.7152 C   0  0  0  0  0  0  0  0  0  0  0  0
   -6.2065   -0.7455  -17.6411 N   0  0  0  0  0  0  0  0  0  0  0  0
   -5.1681    0.0196  -17.8718 C   0  0  0  0  0  0  0  0  0  0  0  0
   -4.7510    0.4192  -19.1742 C   0  0  0  0  0  0  0  0  0  0  0  0
   -3.6300    1.2737  -19.3643 C   0  0  0  0  0  0  0  0  0  0  0  0
   -3.2132    1.6036  -20.6231 C   0  0  0  0  0  0  0  0  0  0  0  0
   -3.8915    1.0942  -21.7521 C   0  0  0  0  0  0  0  0  0  0  0  0
   -5.0021    0.2925  -21.5929 C   0  0  0  0  0  0  0  0  0  0  0  0
   -5.4710   -0.0664  -20.2968 C   0  0  0  0  0  0  0  0  0  0  0  0
   -6.7788   -3.9725  -23.5365 C   0  0  0  0  0  0  0  0  0  0  0  0
   -7.9632   -4.3280  -23.3437 O   0  0  0  0  0  0  0  0  0  0  0  0
   -6.1229   -4.0454  -24.5928 O   0  0  0  0  0  0  0  0  0  0  0  0
   -4.3352   -2.4197  -21.5951 H   0  0  0  0  0  0  0  0  0  0  0  0
   -4.1804   -3.2586  -23.2725 H   0  0  0  0  0  0  0  0  0  0  0  0
   -7.9532   -3.5830  -21.4802 H   0  0  0  0  0  0  0  0  0  0  0  0
   -6.6503   -3.4286  -20.2630 H   0  0  0  0  0  0  0  0  0  0  0  0
   -8.6734   -2.5949  -23.1486 H   0  0  0  0  0  0  0  0  0  0  0  0
   -8.4315   -1.4979  -25.2058 H   0  0  0  0  0  0  0  0  0  0  0  0
   -7.1222   -0.8356  -24.2191 H   0  0  0  0  0  0  0  0  0  0  0  0
   -8.3582    1.9068  -26.0510 H   0  0  0  0  0  0  0  0  0  0  0  0
   -6.9616    0.9287  -25.6077 H   0  0  0  0  0  0  0  0  0  0  0  0
   -8.0843    1.8774  -22.5822 H   0  0  0  0  0  0  0  0  0  0  0  0
   -7.1912    3.4068  -21.1525 H   0  0  0  0  0  0  0  0  0  0  0  0
   -5.8054    3.4479  -22.2737 H   0  0  0  0  0  0  0  0  0  0  0  0
   -7.1173    4.6270  -22.4520 H   0  0  0  0  0  0  0  0  0  0  0  0
  -12.6052    1.0667  -24.0519 H   0  0  0  0  0  0  0  0  0  0  0  0
  -14.1723   -0.5826  -22.9931 H   0  0  0  0  0  0  0  0  0  0  0  0
  -10.8315   -3.1237  -22.0960 H   0  0  0  0  0  0  0  0  0  0  0  0
   -7.7393   -1.8490  -18.4963 H   0  0  0  0  0  0  0  0  0  0  0  0
   -4.6156    0.3898  -17.0086 H   0  0  0  0  0  0  0  0  0  0  0  0
   -3.1096    1.6456  -18.4844 H   0  0  0  0  0  0  0  0  0  0  0  0
   -2.3547    2.2558  -20.7634 H   0  0  0  0  0  0  0  0  0  0  0  0
   -3.5441    1.3486  -22.7502 H   0  0  0  0  0  0  0  0  0  0  0  0
   -5.5156   -0.0913  -22.4698 H   0  0  0  0  0  0  0  0  0  0  0  0
  1  2  2  0
  2  3  1  0
  3  4  1  0
  4  5  1  0
  5  6  2  0
  5  7  1  0
  7  8  1  0
  8  9  1  0
  9 10  1  0
 10 11  1  0
 11 12  2  0
 11 13  1  0
 13 14  1  0
  9 15  1  0
 15 16  2  0
 15 17  1  0
 17 18  2  0
 18 19  1  0
 19 20  2  0
 20 21  1  0
 20 22  1  0
 22 23  2  0
  4 24  1  0
 24 25  2  0
 25 26  1  0
 26 27  2  0
 27 28  1  0
 28 29  2  0
 29 30  1  0
 30 31  2  0
 31 32  1  0
 32 33  2  0
  2 34  1  0
 34 35  2  0
 34 36  1  0
 23  7  1  0
 33 24  1  0
 23 17  1  0
 33 28  1  0
  1 37  1  0
  1 38  1  0
  3 39  1  0
  3 40  1  0
  7 41  1  6
  8 42  1  0
  8 43  1  0
 10 44  1  0
 10 45  1  0
 13 46  1  0
 14 47  1  0
 14 48  1  0
 14 49  1  0
 18 50  1  0
 19 51  1  0
 22 52  1  0
 25 53  1  0
 27 54  1  0
 29 55  1  0
 30 56  1  0
 31 57  1  0
 32 58  1  0
M  CHG  1  36  -1
M  END
$$$$

     RDKit          3D

 73 78  0  0  0  0  0  0  0  0999 V2000
   -8.4261   -3.8473  -23.7001 C   0  0  0  0  0  0  0  0  0  0  0  0
   -8.5299   -2.8519  -22.5520 C   0  0  1  0  0  0  0  0  0  0  0  0
   -7.2144   -2.5859  -21.8123 C   0  0  0  0  0  0  0  0  0  0  0  0
   -7.4910   -1.3300  -21.1451 N   0  0  0  0  0  0  0  0  0  0  0  0
   -6.6509   -0.8100  -20.1238 C   0  0  0  0  0  0  0  0  0  0  0  0
   -6.8650   -1.1787  -18.8170 C   0  0  0  0  0  0  0  0  0  0  0  0
   -6.0843   -0.8053  -17.7732 N   0  0  0  0  0  0  0  0  0  0  0  0
   -5.0597   -0.0322  -18.0289 C   0  0  0  0  0  0  0  0  0  0  0  0
   -4.7367    0.4470  -19.3294 C   0  0  0  0  0  0  0  0  0  0  0  0
   -3.6539    1.3409  -19.5373 C   0  0  0  0  0  0  0  0  0  0  0  0
   -3.3367    1.7622  -20.7968 C   0  0  0  0  0  0  0  0  0  0  0  0
   -4.0782    1.3050  -21.9082 C   0  0  0  0  0  0  0  0  0  0  0  0
   -5.1553    0.4666  -21.7297 C   0  0  0  0  0  0  0  0  0  0  0  0
   -5.5268    0.0279  -20.4251 C   0  0  0  0  0  0  0  0  0  0  0  0
   -8.4595   -0.5826  -21.7871 C   0  0  0  0  0  0  0  0  0  0  0  0
   -8.7397    0.5582  -21.5026 O   0  0  0  0  0  0  0  0  0  0  0  0
   -9.0680   -1.4491  -22.9280 C   0  0  1  0  0  0  0  0  0  0  0  0
   -8.5104   -0.9436  -24.2820 C   0  0  0  0  0  0  0  0  0  0  0  0
   -9.0033    0.3837  -24.6185 N   0  0  0  0  0  0  0  0  0  0  0  0
   -8.1619    1.1828  -25.4952 C   0  0  0  0  0  0  0  0  0  0  0  0
   -7.4438    2.2910  -24.7438 C   0  0  0  0  0  0  0  0  0  0  0  0
   -8.3117    3.4684  -24.4479 N   0  0  0  0  0  0  0  0  0  0  0  0
   -8.8388    4.2014  -25.6522 C   0  0  0  0  0  0  0  0  0  0  0  0
   -9.5405    5.4848  -25.2034 C   0  0  0  0  0  0  0  0  0  0  0  0
   -8.6644    6.3449  -24.4160 N   0  0  0  0  0  0  0  0  0  0  0  0
   -8.0363    7.7262  -25.0711 S   0  0  0  0  0  0  0  0  0  0  0  0
   -6.9982    7.1248  -26.3961 C   0  0  0  0  0  0  0  0  0  0  0  0
   -9.1495    8.4537  -25.6592 O   0  0  0  0  0  0  0  0  0  0  0  0
   -7.1806    8.3480  -24.0750 O   0  0  0  0  0  0  0  0  0  0  0  0
   -8.0863    5.7143  -23.2411 C   0  0  0  0  0  0  0  0  0  0  0  0
   -7.5002    4.3468  -23.5573 C   0  0  0  0  0  0  0  0  0  0  0  0
  -10.1941    0.8568  -24.1740 C   0  0  0  0  0  0  0  0  0  0  0  0
  -10.5347    2.0445  -24.2535 O   0  0  0  0  0  0  0  0  0  0  0  0
  -11.1090   -0.1536  -23.5717 C   0  0  0  0  0  0  0  0  0  0  0  0
  -12.4770    0.1086  -23.5668 C   0  0  0  0  0  0  0  0  0  0  0  0
  -13.3544   -0.8280  -23.0591 C   0  0  0  0  0  0  0  0  0  0  0  0
  -12.8343   -2.0242  -22.5652 C   0  0  0  0  0  0  0  0  0  0  0  0
  -13.9151   -3.1823  -21.8420 Cl  0  0  0  0  0  0  0  0  0  0  0  0
  -11.4791   -2.3053  -22.5878 C   0  0  0  0  0  0  0  0  0  0  0  0
  -10.5791   -1.3311  -23.0323 C   0  0  0  0  0  0  0  0  0  0  0  0
   -9.3869   -3.9347  -24.2215 H   0  0  0  0  0  0  0  0  0  0  0  0
   -8.1370   -4.8393  -23.3380 H   0  0  0  0  0  0  0  0  0  0  0  0
   -7.6746   -3.5218  -24.4308 H   0  0  0  0  0  0  0  0  0  0  0  0
   -9.2057   -3.2464  -21.7849 H   0  0  0  0  0  0  0  0  0  0  0  0
   -6.3653   -2.5034  -22.5136 H   0  0  0  0  0  0  0  0  0  0  0  0
   -6.9754   -3.3620  -21.0803 H   0  0  0  0  0  0  0  0  0  0  0  0
   -7.7156   -1.8104  -18.5681 H   0  0  0  0  0  0  0  0  0  0  0  0
   -4.4311    0.2705  -17.1900 H   0  0  0  0  0  0  0  0  0  0  0  0
   -3.1024    1.6900  -18.6687 H   0  0  0  0  0  0  0  0  0  0  0  0
   -2.5157    2.4564  -20.9511 H   0  0  0  0  0  0  0  0  0  0  0  0
   -3.7967    1.6225  -22.9071 H   0  0  0  0  0  0  0  0  0  0  0  0
   -5.7332    0.1512  -22.5944 H   0  0  0  0  0  0  0  0  0  0  0  0
   -7.4147   -0.8995  -24.2431 H   0  0  0  0  0  0  0  0  0  0  0  0
   -8.7973   -1.6398  -25.0789 H   0  0  0  0  0  0  0  0  0  0  0  0
   -8.7404    1.5876  -26.3303 H   0  0  0  0  0  0  0  0  0  0  0  0
   -7.4156    0.5098  -25.9244 H   0  0  0  0  0  0  0  0  0  0  0  0
   -6.5506    2.6212  -25.2959 H   0  0  0  0  0  0  0  0  0  0  0  0
   -7.1093    1.8846  -23.7763 H   0  0  0  0  0  0  0  0  0  0  0  0
   -9.1627    3.0898  -23.9790 H   0  0  0  0  0  0  0  0  0  0  0  0
   -8.0176    4.4165  -26.3477 H   0  0  0  0  0  0  0  0  0  0  0  0
   -9.5806    3.5678  -26.1496 H   0  0  0  0  0  0  0  0  0  0  0  0
   -9.9486    6.0483  -26.0437 H   0  0  0  0  0  0  0  0  0  0  0  0
  -10.3855    5.1976  -24.5614 H   0  0  0  0  0  0  0  0  0  0  0  0
   -6.4308    7.9780  -26.7789 H   0  0  0  0  0  0  0  0  0  0  0  0
   -6.3128    6.3720  -25.9928 H   0  0  0  0  0  0  0  0  0  0  0  0
   -7.6269    6.6969  -27.1851 H   0  0  0  0  0  0  0  0  0  0  0  0
   -7.2873    6.3500  -22.8580 H   0  0  0  0  0  0  0  0  0  0  0  0
   -8.8522    5.6286  -22.4658 H   0  0  0  0  0  0  0  0  0  0  0  0
   -7.2791    3.7921  -22.6403 H   0  0  0  0  0  0  0  0  0  0  0  0
   -6.5523    4.5029  -24.0775 H   0  0  0  0  0  0  0  0  0  0  0  0
  -12.8313    1.0506  -23.9705 H   0  0  0  0  0  0  0  0  0  0  0  0
  -14.4227   -0.6405  -23.0261 H   0  0  0  0  0  0  0  0  0  0  0  0
  -11.1465   -3.2742  -22.2328 H   0  0  0  0  0  0  0  0  0  0  0  0
  1  2  1  0
  2  3  1  0
  3  4  1  0
  4  5  1  0
  5  6  2  0
  6  7  1  0
  7  8  2  0
  8  9  1  0
  9 10  2  0
 10 11  1  0
 11 12  2  0
 12 13  1  0
 13 14  2  0
  4 15  1  0
 15 16  2  0
 15 17  1  0
 17 18  1  6
 18 19  1  0
 19 20  1  0
 20 21  1  0
 21 22  1  0
 22 23  1  0
 23 24  1  0
 24 25  1  0
 25 26  1  0
 26 27  1  0
 26 28  2  0
 26 29  2  0
 25 30  1  0
 30 31  1  0
 19 32  1  0
 32 33  2  0
 32 34  1  0
 34 35  2  0
 35 36  1  0
 36 37  2  0
 37 38  1  0
 37 39  1  0
 39 40  2  0
 17  2  1  0
 31 22  1  0
 40 34  1  0
 14  5  1  0
 40 17  1  0
 14  9  1  0
  1 41  1  0
  1 42  1  0
  1 43  1  0
  2 44  1  1
  3 45  1  0
  3 46  1  0
  6 47  1  0
  8 48  1  0
 10 49  1  0
 11 50  1  0
 12 51  1  0
 13 52  1  0
 18 53  1  0
 18 54  1  0
 20 55  1  0
 20 56  1  0
 21 57  1  0
 21 58  1  0
 22 59  1  0
 23 60  1  0
 23 61  1  0
 24 62  1  0
 24 63  1  0
 27 64  1  0
 27 65  1  0
 27 66  1  0
 30 67  1  0
 30 68  1  0
 31 69  1  0
 31 70  1  0
 35 71  1  0
 36 72  1  0
 39 73  1  0
M  CHG  1  22   1
M  END
$$$$

     RDKit          3D

 55 60  0  0  0  0  0  0  0  0999 V2000
   -8.4218   -3.8295  -23.7059 C   0  0  0  0  0  0  0  0  0  0  0  0
   -8.5276   -2.8355  -22.5584 C   0  0  1  0  0  0  0  0  0  0  0  0
   -7.2183   -2.5691  -21.8066 C   0  0  0  0  0  0  0  0  0  0  0  0
   -7.4965   -1.3129  -21.1498 N   0  0  0  0  0  0  0  0  0  0  0  0
   -6.6533   -0.8053  -20.1304 C   0  0  0  0  0  0  0  0  0  0  0  0
   -6.8770   -1.1633  -18.8222 C   0  0  0  0  0  0  0  0  0  0  0  0
   -6.1104   -0.7719  -17.7755 N   0  0  0  0  0  0  0  0  0  0  0  0
   -5.0838    0.0076  -18.0174 C   0  0  0  0  0  0  0  0  0  0  0  0
   -4.7545    0.4739  -19.3231 C   0  0  0  0  0  0  0  0  0  0  0  0
   -3.6674    1.3607  -19.5364 C   0  0  0  0  0  0  0  0  0  0  0  0
   -3.3245    1.7582  -20.7975 C   0  0  0  0  0  0  0  0  0  0  0  0
   -4.0485    1.2688  -21.9057 C   0  0  0  0  0  0  0  0  0  0  0  0
   -5.1393    0.4525  -21.7268 C   0  0  0  0  0  0  0  0  0  0  0  0
   -5.5276    0.0347  -20.4221 C   0  0  0  0  0  0  0  0  0  0  0  0
   -8.4812   -0.5812  -21.7836 C   0  0  0  0  0  0  0  0  0  0  0  0
   -8.8214    0.5351  -21.4691 O   0  0  0  0  0  0  0  0  0  0  0  0
   -9.0660   -1.4329  -22.9391 C   0  0  1  0  0  0  0  0  0  0  0  0
   -8.4998   -0.9202  -24.2870 C   0  0  0  0  0  0  0  0  0  0  0  0
   -8.9944    0.4092  -24.6157 N   0  0  0  0  0  0  0  0  0  0  0  0
   -8.1297    1.3263  -25.3193 C   0  0  0  0  0  0  0  0  0  0  0  0
   -7.3838    2.2926  -24.4342 C   0  0  0  0  0  0  0  0  0  0  0  0
   -7.8115    2.9725  -23.3402 C   0  0  0  0  0  0  0  0  0  0  0  0
   -6.7930    3.7821  -22.9292 O   0  0  0  0  0  0  0  0  0  0  0  0
   -5.7896    3.5292  -23.7863 C   0  0  0  0  0  0  0  0  0  0  0  0
   -6.0661    2.6530  -24.6946 N   0  0  0  0  0  0  0  0  0  0  0  0
  -10.2252    0.8689  -24.2528 C   0  0  0  0  0  0  0  0  0  0  0  0
  -10.5707    2.0368  -24.4174 O   0  0  0  0  0  0  0  0  0  0  0  0
  -11.1209   -0.1493  -23.6315 C   0  0  0  0  0  0  0  0  0  0  0  0
  -12.4902    0.1198  -23.6006 C   0  0  0  0  0  0  0  0  0  0  0  0
  -13.3621   -0.7938  -23.0401 C   0  0  0  0  0  0  0  0  0  0  0  0
  -12.8286   -1.9682  -22.5226 C   0  0  0  0  0  0  0  0  0  0  0  0
  -13.6607   -2.8616  -21.9571 F   0  0  0  0  0  0  0  0  0  0  0  0
  -11.4778   -2.2589  -22.5540 C   0  0  0  0  0  0  0  0  0  0  0  0
  -10.5804   -1.3075  -23.0495 C   0  0  0  0  0  0  0  0  0  0  0  0
   -9.3760   -3.9205  -24.2374 H   0  0  0  0  0  0  0  0  0  0  0  0
   -8.1337   -4.8259  -23.3630 H   0  0  0  0  0  0  0  0  0  0  0  0
   -7.6645   -3.5171  -24.4328 H   0  0  0  0  0  0  0  0  0  0  0  0
   -9.2235   -3.2136  -21.8037 H   0  0  0  0  0  0  0  0  0  0  0  0
   -6.3612   -2.4799  -22.4923 H   0  0  0  0  0  0  0  0  0  0  0  0
   -6.9661   -3.3403  -21.0741 H   0  0  0  0  0  0  0  0  0  0  0  0
   -7.7468   -1.7651  -18.5635 H   0  0  0  0  0  0  0  0  0  0  0  0
   -4.4726    0.3306  -17.1710 H   0  0  0  0  0  0  0  0  0  0  0  0
   -3.1239    1.7225  -18.6716 H   0  0  0  0  0  0  0  0  0  0  0  0
   -2.5044    2.4563  -20.9477 H   0  0  0  0  0  0  0  0  0  0  0  0
   -3.7423    1.5450  -22.9097 H   0  0  0  0  0  0  0  0  0  0  0  0
   -5.7102    0.1171  -22.5866 H   0  0  0  0  0  0  0  0  0  0  0  0
   -8.7825   -1.6319  -25.0740 H   0  0  0  0  0  0  0  0  0  0  0  0
   -7.4061   -0.8673  -24.2436 H   0  0  0  0  0  0  0  0  0  0  0  0
   -8.7575    1.8668  -26.0335 H   0  0  0  0  0  0  0  0  0  0  0  0
   -7.4219    0.7399  -25.9083 H   0  0  0  0  0  0  0  0  0  0  0  0
   -8.7144    3.0042  -22.7492 H   0  0  0  0  0  0  0  0  0  0  0  0
   -4.8555    4.0540  -23.6102 H   0  0  0  0  0  0  0  0  0  0  0  0
  -12.8387    1.0718  -23.9879 H   0  0  0  0  0  0  0  0  0  0  0  0
  -14.4312   -0.6234  -22.9565 H   0  0  0  0  0  0  0  0  0  0  0  0
  -11.1569   -3.2131  -22.1536 H   0  0  0  0  0  0  0  0  0  0  0  0
  1  2  1  0
  2  3  1  0
  3  4  1  0
  4  5  1  0
  5  6  2  0
  6  7  1  0
  7  8  2  0
  8  9  1  0
  9 10  2  0
 10 11  1  0
 11 12  2  0
 12 13  1  0
 13 14  2  0
  4 15  1  0
 15 16  2  0
 15 17  1  0
 17 18  1  6
 18 19  1  0
 19 20  1  0
 20 21  1  0
 21 22  2  0
 22 23  1  0
 23 24  1  0
 24 25  2  0
 19 26  1  0
 26 27  2  0
 26 28  1  0
 28 29  2  0
 29 30  1  0
 30 31  2  0
 31 32  1  0
 31 33  1  0
 33 34  2  0
 17  2  1  0
 25 21  1  0
 34 28  1  0
 14  5  1  0
 34 17  1  0
 14  9  1  0
  1 35  1  0
  1 36  1  0
  1 37  1  0
  2 38  1  1
  3 39  1  0
  3 40  1  0
  6 41  1  0
  8 42  1  0
 10 43  1  0
 11 44  1  0
 12 45  1  0
 13 46  1  0
 18 47  1  0
 18 48  1  0
 20 49  1  0
 20 50  1  0
 22 51  1  0
 24 52  1  0
 29 53  1  0
 30 54  1  0
 33 55  1  0
M  END
$$$$

     RDKit          3D

 52 54  0  0  0  0  0  0  0  0999 V2000
   -8.1385   -7.3289  -29.4003 C   0  0  0  0  0  0  0  0  0  0  0  0
   -7.2551   -6.8707  -28.2325 C   0  0  0  0  0  0  0  0  0  0  0  0
   -5.7871   -7.1354  -28.5773 C   0  0  0  0  0  0  0  0  0  0  0  0
   -7.3899   -5.3695  -27.9341 C   0  0  0  0  0  0  0  0  0  0  0  0
   -8.7638   -4.8895  -27.4219 C   0  0  0  0  0  0  0  0  0  0  0  0
   -9.8701   -5.1864  -28.4461 C   0  0  0  0  0  0  0  0  0  0  0  0
   -9.1200   -5.5461  -26.0794 C   0  0  0  0  0  0  0  0  0  0  0  0
   -8.0760   -5.2210  -25.0047 C   0  0  0  0  0  0  0  0  0  0  0  0
   -7.8288   -3.7772  -24.9091 N   0  0  0  0  0  0  0  0  0  0  0  0
   -7.6151   -3.2132  -23.6535 C   0  0  0  0  0  0  0  0  0  0  0  0
   -7.1790   -3.9294  -22.7601 O   0  0  0  0  0  0  0  0  0  0  0  0
   -8.4657   -2.0236  -23.1914 C   0  0  0  0  0  0  0  0  0  0  0  0
   -9.8819   -2.5066  -22.8296 C   0  0  0  0  0  0  0  0  0  0  0  0
  -10.1293   -3.8532  -22.4860 C   0  0  0  0  0  0  0  0  0  0  0  0
  -11.3563   -4.3767  -22.3284 N   0  0  0  0  0  0  0  0  0  0  0  0
  -12.4025   -3.5552  -22.4789 C   0  0  0  0  0  0  0  0  0  0  0  0
  -12.2713   -2.1885  -22.7343 C   0  0  0  0  0  0  0  0  0  0  0  0
  -13.3953   -1.3516  -22.8213 C   0  0  0  0  0  0  0  0  0  0  0  0
  -13.2287    0.0140  -23.0409 C   0  0  0  0  0  0  0  0  0  0  0  0
  -11.9461    0.5492  -23.1805 C   0  0  0  0  0  0  0  0  0  0  0  0
  -10.8263   -0.2838  -23.1002 C   0  0  0  0  0  0  0  0  0  0  0  0
  -10.9859   -1.6494  -22.8924 C   0  0  0  0  0  0  0  0  0  0  0  0
   -7.5788   -3.0353  -26.1446 C   0  0  0  0  0  0  0  0  0  0  0  0
   -8.6682   -3.3696  -27.1747 C   0  0  0  0  0  0  0  0  0  0  0  0
   -8.1467   -6.5799  -30.1989 H   0  0  0  0  0  0  0  0  0  0  0  0
   -7.7556   -8.2642  -29.8187 H   0  0  0  0  0  0  0  0  0  0  0  0
   -9.1627   -7.5057  -29.0615 H   0  0  0  0  0  0  0  0  0  0  0  0
   -7.5186   -7.4423  -27.3361 H   0  0  0  0  0  0  0  0  0  0  0  0
   -5.6083   -8.2080  -28.6815 H   0  0  0  0  0  0  0  0  0  0  0  0
   -5.5174   -6.6419  -29.5167 H   0  0  0  0  0  0  0  0  0  0  0  0
   -5.1371   -6.7503  -27.7851 H   0  0  0  0  0  0  0  0  0  0  0  0
   -6.6464   -5.1124  -27.1736 H   0  0  0  0  0  0  0  0  0  0  0  0
   -7.1394   -4.8061  -28.8381 H   0  0  0  0  0  0  0  0  0  0  0  0
   -9.5195   -4.9985  -29.4644 H   0  0  0  0  0  0  0  0  0  0  0  0
  -10.7435   -4.5551  -28.2650 H   0  0  0  0  0  0  0  0  0  0  0  0
  -10.1892   -6.2293  -28.3794 H   0  0  0  0  0  0  0  0  0  0  0  0
   -9.1864   -6.6316  -26.1981 H   0  0  0  0  0  0  0  0  0  0  0  0
  -10.1027   -5.1873  -25.7537 H   0  0  0  0  0  0  0  0  0  0  0  0
   -8.4463   -5.5979  -24.0462 H   0  0  0  0  0  0  0  0  0  0  0  0
   -7.1433   -5.7427  -25.2279 H   0  0  0  0  0  0  0  0  0  0  0  0
   -8.4989   -1.2786  -23.9931 H   0  0  0  0  0  0  0  0  0  0  0  0
   -7.9826   -1.5529  -22.3264 H   0  0  0  0  0  0  0  0  0  0  0  0
   -9.2701   -4.5101  -22.3922 H   0  0  0  0  0  0  0  0  0  0  0  0
  -13.3963   -3.9712  -22.3693 H   0  0  0  0  0  0  0  0  0  0  0  0
  -14.3920   -1.7568  -22.6898 H   0  0  0  0  0  0  0  0  0  0  0  0
  -14.0979    0.6658  -23.0740 H   0  0  0  0  0  0  0  0  0  0  0  0
  -11.8050    1.6063  -23.3535 H   0  0  0  0  0  0  0  0  0  0  0  0
   -9.8233    0.1252  -23.1669 H   0  0  0  0  0  0  0  0  0  0  0  0
   -7.5450   -1.9534  -25.9816 H   0  0  0  0  0  0  0  0  0  0  0  0
   -6.5981   -3.3256  -26.5376 H   0  0  0  0  0  0  0  0  0  0  0  0
   -8.4445   -2.8650  -28.1172 H   0  0  0  0  0  0  0  0  0  0  0  0
   -9.6268   -2.9948  -26.8024 H   0  0  0  0  0  0  0  0  0  0  0  0
  1  2  1  0
  2  3  1  0
  2  4  1  0
  4  5  1  0
  5  6  1  0
  5  7  1  0
  7  8  1  0
  8  9  1  0
  9 10  1  0
 10 11  2  0
 10 12  1  0
 12 13  1  0
 13 14  2  0
 14 15  1  0
 15 16  2  0
 16 17  1  0
 17 18  2  0
 18 19  1  0
 19 20  2  0
 20 21  1  0
 21 22  2  0
  9 23  1  0
 23 24  1  0
 24  5  1  0
 22 13  1  0
 22 17  1  0
  1 25  1  0
  1 26  1  0
  1 27  1  0
  2 28  1  0
  3 29  1  0
  3 30  1  0
  3 31  1  0
  4 32  1  0
  4 33  1  0
  6 34  1  0
  6 35  1  0
  6 36  1  0
  7 37  1  0
  7 38  1  0
  8 39  1  0
  8 40  1  0
 12 41  1  0
 12 42  1  0
 14 43  1  0
 16 44  1  0
 18 45  1  0
 19 46  1  0
 20 47  1  0
 21 48  1  0
 23 49  1  0
 23 50  1  0
 24 51  1  0
 24 52  1  0
M  END
$$$$

     RDKit          3D

 40 42  0  0  0  0  0  0  0  0999 V2000
   -9.3018   -0.8496  -21.0345 O   0  0  0  0  0  0  0  0  0  0  0  0
   -8.2413   -1.3758  -21.3131 C   0  0  0  0  0  0  0  0  0  0  0  0
   -6.9912   -0.4693  -21.3551 C   0  0  0  0  0  0  0  0  0  0  0  0
   -6.0982   -0.3420  -20.1094 C   0  0  0  0  0  0  0  0  0  0  0  0
   -6.5196   -0.7530  -18.8287 C   0  0  0  0  0  0  0  0  0  0  0  0
   -5.7424   -0.6685  -17.7325 N   0  0  0  0  0  0  0  0  0  0  0  0
   -4.5156   -0.1295  -17.8556 C   0  0  0  0  0  0  0  0  0  0  0  0
   -4.0217    0.3768  -19.0625 C   0  0  0  0  0  0  0  0  0  0  0  0
   -2.7554    0.9922  -19.1324 C   0  0  0  0  0  0  0  0  0  0  0  0
   -2.2568    1.4201  -20.3666 C   0  0  0  0  0  0  0  0  0  0  0  0
   -3.0253    1.2590  -21.5259 C   0  0  0  0  0  0  0  0  0  0  0  0
   -4.3151    0.7159  -21.4438 C   0  0  0  0  0  0  0  0  0  0  0  0
   -4.8202    0.2540  -20.2194 C   0  0  0  0  0  0  0  0  0  0  0  0
   -8.2707   -2.6610  -21.8634 N   0  0  0  0  0  0  0  0  0  0  0  0
   -9.5581   -3.2697  -22.1901 C   0  0  0  0  0  0  0  0  0  0  0  0
  -10.0997   -2.5554  -23.4379 C   0  0  0  0  0  0  0  0  0  0  0  0
   -9.0553   -2.4304  -24.5945 C   0  0  0  0  0  0  0  0  0  0  0  0
   -9.5324   -1.3744  -25.6217 C   0  0  0  0  0  0  0  0  0  0  0  0
  -10.8605   -1.5140  -25.8925 F   0  0  0  0  0  0  0  0  0  0  0  0
   -8.8453   -1.4923  -26.7897 F   0  0  0  0  0  0  0  0  0  0  0  0
   -7.6280   -2.0793  -24.0752 C   0  0  0  0  0  0  0  0  0  0  0  0
   -7.2765   -2.9657  -22.8731 C   0  0  0  0  0  0  0  0  0  0  0  0
   -7.3564    0.5285  -21.5975 H   0  0  0  0  0  0  0  0  0  0  0  0
   -6.3777   -0.8019  -22.1965 H   0  0  0  0  0  0  0  0  0  0  0  0
   -7.5397   -1.1105  -18.7023 H   0  0  0  0  0  0  0  0  0  0  0  0
   -3.8718   -0.1041  -16.9803 H   0  0  0  0  0  0  0  0  0  0  0  0
   -2.1522    1.1291  -18.2374 H   0  0  0  0  0  0  0  0  0  0  0  0
   -1.2674    1.8674  -20.4192 H   0  0  0  0  0  0  0  0  0  0  0  0
   -2.6279    1.5639  -22.4896 H   0  0  0  0  0  0  0  0  0  0  0  0
   -4.9238    0.6426  -22.3408 H   0  0  0  0  0  0  0  0  0  0  0  0
   -9.4431   -4.3376  -22.4072 H   0  0  0  0  0  0  0  0  0  0  0  0
  -10.2553   -3.1912  -21.3480 H   0  0  0  0  0  0  0  0  0  0  0  0
  -10.4062   -1.5508  -23.1373 H   0  0  0  0  0  0  0  0  0  0  0  0
  -10.9955   -3.0848  -23.7868 H   0  0  0  0  0  0  0  0  0  0  0  0
   -8.9981   -3.3979  -25.1035 H   0  0  0  0  0  0  0  0  0  0  0  0
   -9.3628   -0.3781  -25.2095 H   0  0  0  0  0  0  0  0  0  0  0  0
   -6.8814   -2.2334  -24.8638 H   0  0  0  0  0  0  0  0  0  0  0  0
   -7.6008   -1.0260  -23.7595 H   0  0  0  0  0  0  0  0  0  0  0  0
   -6.2698   -2.7795  -22.4996 H   0  0  0  0  0  0  0  0  0  0  0  0
   -7.3224   -4.0194  -23.1672 H   0  0  0  0  0  0  0  0  0  0  0  0
  1  2  2  0
  2  3  1  0
  3  4  1  0
  4  5  2  0
  5  6  1  0
  6  7  2  0
  7  8  1  0
  8  9  2  0
  9 10  1  0
 10 11  2  0
 11 12  1  0
 12 13  2  0
  2 14  1  0
 14 15  1  0
 15 16  1  0
 16 17  1  0
 17 18  1  0
 18 19  1  0
 18 20  1  0
 17 21  1  0
 21 22  1  0
 13  4  1  0
 22 14  1  0
 13  8  1  0
  3 23  1  0
  3 24  1  0
  5 25  1  0
  7 26  1  0
  9 27  1  0
 10 28  1  0
 11 29  1  0
 12 30  1  0
 15 31  1  0
 15 32  1  0
 16 33  1  0
 16 34  1  0
 17 35  1  0
 18 36  1  0
 21 37  1  0
 21 38  1  0
 22 39  1  0
 22 40  1  0
M  END
$$$$

     RDKit          3D

 57 62  0  0  0  0  0  0  0  0999 V2000
   -8.4168   -3.8202  -23.7210 C   0  0  0  0  0  0  0  0  0  0  0  0
   -8.5392   -2.8340  -22.5619 C   0  0  1  0  0  0  0  0  0  0  0  0
   -7.2210   -2.5731  -21.8072 C   0  0  0  0  0  0  0  0  0  0  0  0
   -7.4946   -1.3044  -21.1475 N   0  0  0  0  0  0  0  0  0  0  0  0
   -6.6746   -0.7616  -20.1161 C   0  0  0  0  0  0  0  0  0  0  0  0
   -6.9116   -1.1029  -18.8078 C   0  0  0  0  0  0  0  0  0  0  0  0
   -6.1523   -0.7080  -17.7551 N   0  0  0  0  0  0  0  0  0  0  0  0
   -5.1355    0.0822  -17.9969 C   0  0  0  0  0  0  0  0  0  0  0  0
   -4.7671    0.5150  -19.3063 C   0  0  0  0  0  0  0  0  0  0  0  0
   -3.6728    1.3928  -19.5297 C   0  0  0  0  0  0  0  0  0  0  0  0
   -3.3232    1.7656  -20.7975 C   0  0  0  0  0  0  0  0  0  0  0  0
   -4.0510    1.2743  -21.9070 C   0  0  0  0  0  0  0  0  0  0  0  0
   -5.1432    0.4625  -21.7156 C   0  0  0  0  0  0  0  0  0  0  0  0
   -5.5404    0.0704  -20.4073 C   0  0  0  0  0  0  0  0  0  0  0  0
   -8.4877   -0.5717  -21.7705 C   0  0  0  0  0  0  0  0  0  0  0  0
   -8.7940    0.5642  -21.4802 O   0  0  0  0  0  0  0  0  0  0  0  0
   -9.0868   -1.4243  -22.9242 C   0  0  1  0  0  0  0  0  0  0  0  0
   -8.5342   -0.9064  -24.2683 C   0  0  0  0  0  0  0  0  0  0  0  0
   -9.0058    0.4331  -24.5611 N   0  0  0  0  0  0  0  0  0  0  0  0
   -8.1377    1.3121  -25.3139 C   0  0  0  0  0  0  0  0  0  0  0  0
   -7.2910    2.2341  -24.4795 C   0  0  0  0  0  0  0  0  0  0  0  0
   -6.0136    2.6431  -24.6994 C   0  0  0  0  0  0  0  0  0  0  0  0
   -5.7007    3.5682  -23.7233 N   0  0  0  0  0  0  0  0  0  0  0  0
   -6.7625    3.7020  -22.9155 C   0  0  0  0  0  0  0  0  0  0  0  0
   -7.7447    2.9026  -23.3568 N   0  0  0  0  0  0  0  0  0  0  0  0
  -10.2592    0.8742  -24.2565 C   0  0  0  0  0  0  0  0  0  0  0  0
  -10.6227    2.0243  -24.4961 O   0  0  0  0  0  0  0  0  0  0  0  0
  -11.1471   -0.1317  -23.5942 C   0  0  0  0  0  0  0  0  0  0  0  0
  -12.5184    0.1165  -23.5618 C   0  0  0  0  0  0  0  0  0  0  0  0
  -13.3798   -0.7830  -22.9632 C   0  0  0  0  0  0  0  0  0  0  0  0
  -12.8274   -1.9393  -22.4212 C   0  0  0  0  0  0  0  0  0  0  0  0
  -13.6230   -2.7716  -21.7246 F   0  0  0  0  0  0  0  0  0  0  0  0
  -11.4769   -2.2243  -22.4798 C   0  0  0  0  0  0  0  0  0  0  0  0
  -10.5967   -1.2891  -23.0223 C   0  0  0  0  0  0  0  0  0  0  0  0
   -9.3665   -3.9025  -24.2616 H   0  0  0  0  0  0  0  0  0  0  0  0
   -7.6567   -3.4853  -24.4395 H   0  0  0  0  0  0  0  0  0  0  0  0
   -8.1354   -4.8198  -23.3698 H   0  0  0  0  0  0  0  0  0  0  0  0
   -9.2351   -3.2284  -21.8148 H   0  0  0  0  0  0  0  0  0  0  0  0
   -6.3690   -2.5099  -22.5087 H   0  0  0  0  0  0  0  0  0  0  0  0
   -6.9643   -3.3420  -21.0689 H   0  0  0  0  0  0  0  0  0  0  0  0
   -7.7724   -1.7202  -18.5579 H   0  0  0  0  0  0  0  0  0  0  0  0
   -4.6084    0.4762  -17.1275 H   0  0  0  0  0  0  0  0  0  0  0  0
   -3.1404    1.7664  -18.6590 H   0  0  0  0  0  0  0  0  0  0  0  0
   -2.4885    2.4452  -20.9538 H   0  0  0  0  0  0  0  0  0  0  0  0
   -3.7525    1.5524  -22.9142 H   0  0  0  0  0  0  0  0  0  0  0  0
   -5.7186    0.0962  -22.5608 H   0  0  0  0  0  0  0  0  0  0  0  0
   -7.4425   -0.8639  -24.2254 H   0  0  0  0  0  0  0  0  0  0  0  0
   -8.8366   -1.6024  -25.0630 H   0  0  0  0  0  0  0  0  0  0  0  0
   -7.4595    0.6971  -25.9147 H   0  0  0  0  0  0  0  0  0  0  0  0
   -8.7843    1.8785  -25.9958 H   0  0  0  0  0  0  0  0  0  0  0  0
   -5.2870    2.3530  -25.4489 H   0  0  0  0  0  0  0  0  0  0  0  0
   -4.7977    4.0273  -23.6209 H   0  0  0  0  0  0  0  0  0  0  0  0
   -6.8008    4.3414  -22.0536 H   0  0  0  0  0  0  0  0  0  0  0  0
   -8.6643    2.7693  -22.9317 H   0  0  0  0  0  0  0  0  0  0  0  0
  -12.8641    1.0379  -24.0176 H   0  0  0  0  0  0  0  0  0  0  0  0
  -14.4400   -0.5831  -22.8399 H   0  0  0  0  0  0  0  0  0  0  0  0
  -11.1129   -3.1070  -21.9658 H   0  0  0  0  0  0  0  0  0  0  0  0
  1  2  1  0
  2  3  1  0
  3  4  1  0
  4  5  1  0
  5  6  2  0
  6  7  1  0
  7  8  2  0
  8  9  1  0
  9 10  2  0
 10 11  1  0
 11 12  2  0
 12 13  1  0
 13 14  2  0
  4 15  1  0
 15 16  2  0
 15 17  1  0
 17 18  1  6
 18 19  1  0
 19 20  1  0
 20 21  1  0
 21 22  2  0
 22 23  1  0
 23 24  2  0
 24 25  1  0
 19 26  1  0
 26 27  2  0
 26 28  1  0
 28 29  2  0
 29 30  1  0
 30 31  2  0
 31 32  1  0
 31 33  1  0
 33 34  2  0
 17  2  1  0
 25 21  1  0
 34 28  1  0
 14  5  1  0
 34 17  1  0
 14  9  1  0
  1 35  1  0
  1 36  1  0
  1 37  1  0
  2 38  1  1
  3 39  1  0
  3 40  1  0
  6 41  1  0
  8 42  1  0
 10 43  1  0
 11 44  1  0
 12 45  1  0
 13 46  1  0
 18 47  1  0
 18 48  1  0
 20 49  1  0
 20 50  1  0
 22 51  1  0
 23 52  1  0
 24 53  1  0
 25 54  1  0
 29 55  1  0
 30 56  1  0
 33 57  1  0
M  CHG  1  23   1
M  END
$$$$

     RDKit          3D

 59 64  0  0  0  0  0  0  0  0999 V2000
   -8.4204   -3.8266  -23.7158 C   0  0  0  0  0  0  0  0  0  0  0  0
   -8.5153   -2.8245  -22.5754 C   0  0  1  0  0  0  0  0  0  0  0  0
   -7.2011   -2.5793  -21.8242 C   0  0  0  0  0  0  0  0  0  0  0  0
   -7.4873   -1.3389  -21.1271 N   0  0  0  0  0  0  0  0  0  0  0  0
   -6.6282   -0.8289  -20.1116 C   0  0  0  0  0  0  0  0  0  0  0  0
   -6.8502   -1.1878  -18.8028 C   0  0  0  0  0  0  0  0  0  0  0  0
   -6.0655   -0.8226  -17.7593 N   0  0  0  0  0  0  0  0  0  0  0  0
   -5.0405   -0.0510  -18.0204 C   0  0  0  0  0  0  0  0  0  0  0  0
   -4.7097    0.4220  -19.3208 C   0  0  0  0  0  0  0  0  0  0  0  0
   -3.6417    1.3361  -19.5205 C   0  0  0  0  0  0  0  0  0  0  0  0
   -3.3206    1.7525  -20.7779 C   0  0  0  0  0  0  0  0  0  0  0  0
   -4.0297    1.2622  -21.8944 C   0  0  0  0  0  0  0  0  0  0  0  0
   -5.0975    0.4120  -21.7244 C   0  0  0  0  0  0  0  0  0  0  0  0
   -5.4937   -0.0057  -20.4205 C   0  0  0  0  0  0  0  0  0  0  0  0
   -8.4759   -0.5947  -21.7409 C   0  0  0  0  0  0  0  0  0  0  0  0
   -8.7900    0.5328  -21.4248 O   0  0  0  0  0  0  0  0  0  0  0  0
   -9.0608   -1.4157  -22.9234 C   0  0  1  0  0  0  0  0  0  0  0  0
   -8.5048   -0.8051  -24.2410 C   0  0  0  0  0  0  0  0  0  0  0  0
   -8.9320    0.5808  -24.4067 N   0  0  0  0  0  0  0  0  0  0  0  0
   -8.1617    1.3830  -25.3665 C   0  0  0  0  0  0  0  0  0  0  0  0
   -8.1907    2.8768  -25.1717 C   0  0  0  0  0  0  0  0  0  0  0  0
   -8.6111    3.7090  -26.0937 N   0  0  0  0  0  0  0  0  0  0  0  0
   -8.5648    4.9495  -25.5071 C   0  0  0  0  0  0  0  0  0  0  0  0
   -8.0826    4.8520  -24.2298 C   0  0  0  0  0  0  0  0  0  0  0  0
   -7.8244    3.5153  -24.0283 N   0  0  0  0  0  0  0  0  0  0  0  0
   -7.1939    2.9290  -22.8602 C   0  0  0  0  0  0  0  0  0  0  0  0
  -10.2468    0.9120  -24.1801 C   0  0  0  0  0  0  0  0  0  0  0  0
  -10.7132    2.0066  -24.4501 O   0  0  0  0  0  0  0  0  0  0  0  0
  -11.1157   -0.1642  -23.5839 C   0  0  0  0  0  0  0  0  0  0  0  0
  -12.4888    0.0723  -23.5773 C   0  0  0  0  0  0  0  0  0  0  0  0
  -13.3598   -0.8643  -23.0677 C   0  0  0  0  0  0  0  0  0  0  0  0
  -12.8253   -2.0578  -22.6009 C   0  0  0  0  0  0  0  0  0  0  0  0
  -13.6775   -2.9746  -22.1090 F   0  0  0  0  0  0  0  0  0  0  0  0
  -11.4703   -2.3290  -22.5998 C   0  0  0  0  0  0  0  0  0  0  0  0
  -10.5737   -1.3354  -23.0356 C   0  0  0  0  0  0  0  0  0  0  0  0
   -8.1268   -4.8197  -23.3510 H   0  0  0  0  0  0  0  0  0  0  0  0
   -9.3899   -3.9173  -24.2169 H   0  0  0  0  0  0  0  0  0  0  0  0
   -7.6781   -3.5084  -24.4580 H   0  0  0  0  0  0  0  0  0  0  0  0
   -9.1927   -3.2156  -21.8054 H   0  0  0  0  0  0  0  0  0  0  0  0
   -6.9735   -3.3627  -21.0931 H   0  0  0  0  0  0  0  0  0  0  0  0
   -6.3356   -2.4750  -22.5058 H   0  0  0  0  0  0  0  0  0  0  0  0
   -7.7093   -1.8112  -18.5579 H   0  0  0  0  0  0  0  0  0  0  0  0
   -4.3963    0.2371  -17.1904 H   0  0  0  0  0  0  0  0  0  0  0  0
   -3.1006    1.6986  -18.6490 H   0  0  0  0  0  0  0  0  0  0  0  0
   -2.5161    2.4625  -20.9322 H   0  0  0  0  0  0  0  0  0  0  0  0
   -3.7423    1.5798  -22.8917 H   0  0  0  0  0  0  0  0  0  0  0  0
   -5.6401    0.0750  -22.6031 H   0  0  0  0  0  0  0  0  0  0  0  0
   -7.4123   -0.8177  -24.2248 H   0  0  0  0  0  0  0  0  0  0  0  0
   -8.8383   -1.4201  -25.0920 H   0  0  0  0  0  0  0  0  0  0  0  0
   -7.1195    1.0335  -25.2987 H   0  0  0  0  0  0  0  0  0  0  0  0
   -8.5158    1.2178  -26.3955 H   0  0  0  0  0  0  0  0  0  0  0  0
   -8.9406    5.8204  -26.0228 H   0  0  0  0  0  0  0  0  0  0  0  0
   -7.9466    5.5803  -23.4479 H   0  0  0  0  0  0  0  0  0  0  0  0
   -7.5695    3.4211  -21.9610 H   0  0  0  0  0  0  0  0  0  0  0  0
   -7.4555    1.8737  -22.8016 H   0  0  0  0  0  0  0  0  0  0  0  0
   -6.1006    3.0257  -22.8907 H   0  0  0  0  0  0  0  0  0  0  0  0
  -12.8463    1.0197  -23.9606 H   0  0  0  0  0  0  0  0  0  0  0  0
  -14.4305   -0.7044  -23.0360 H   0  0  0  0  0  0  0  0  0  0  0  0
  -11.1767   -3.3206  -22.2682 H   0  0  0  0  0  0  0  0  0  0  0  0
  1  2  1  0
  2  3  1  0
  3  4  1  0
  4  5  1  0
  5  6  2  0
  6  7  1  0
  7  8  2  0
  8  9  1  0
  9 10  2  0
 10 11  1  0
 11 12  2  0
 12 13  1  0
 13 14  2  0
  4 15  1  0
 15 16  2  0
 15 17  1  0
 17 18  1  6
 18 19  1  0
 19 20  1  0
 20 21  1  0
 21 22  2  0
 22 23  1  0
 23 24  2  0
 24 25  1  0
 25 26  1  0
 19 27  1  0
 27 28  2  0
 27 29  1  0
 29 30  2  0
 30 31  1  0
 31 32  2  0
 32 33  1  0
 32 34  1  0
 34 35  2  0
 17  2  1  0
 25 21  1  0
 35 29  1  0
 14  5  1  0
 35 17  1  0
 14  9  1  0
  1 36  1  0
  1 37  1  0
  1 38  1  0
  2 39  1  1
  3 40  1  0
  3 41  1  0
  6 42  1  0
  8 43  1  0
 10 44  1  0
 11 45  1  0
 12 46  1  0
 13 47  1  0
 18 48  1  0
 18 49  1  0
 20 50  1  0
 20 51  1  0
 23 52  1  0
 24 53  1  0
 26 54  1  0
 26 55  1  0
 26 56  1  0
 30 57  1  0
 31 58  1  0
 34 59  1  0
M  END
$$$$

     RDKit          3D

 55 60  0  0  0  0  0  0  0  0999 V2000
   -8.4188   -3.8348  -23.7088 C   0  0  0  0  0  0  0  0  0  0  0  0
   -8.5244   -2.8424  -22.5555 C   0  0  1  0  0  0  0  0  0  0  0  0
   -7.2099   -2.5843  -21.8018 C   0  0  0  0  0  0  0  0  0  0  0  0
   -7.4872   -1.3283  -21.1410 N   0  0  0  0  0  0  0  0  0  0  0  0
   -6.6440   -0.8162  -20.1203 C   0  0  0  0  0  0  0  0  0  0  0  0
   -6.8745   -1.1640  -18.8118 C   0  0  0  0  0  0  0  0  0  0  0  0
   -6.1092   -0.7698  -17.7644 N   0  0  0  0  0  0  0  0  0  0  0  0
   -5.0870    0.0108  -18.0108 C   0  0  0  0  0  0  0  0  0  0  0  0
   -4.7488    0.4699  -19.3164 C   0  0  0  0  0  0  0  0  0  0  0  0
   -3.6632    1.3565  -19.5363 C   0  0  0  0  0  0  0  0  0  0  0  0
   -3.3239    1.7585  -20.7952 C   0  0  0  0  0  0  0  0  0  0  0  0
   -4.0627    1.2835  -21.8999 C   0  0  0  0  0  0  0  0  0  0  0  0
   -5.1497    0.4590  -21.7171 C   0  0  0  0  0  0  0  0  0  0  0  0
   -5.5239    0.0279  -20.4148 C   0  0  0  0  0  0  0  0  0  0  0  0
   -8.4797   -0.5933  -21.7653 C   0  0  0  0  0  0  0  0  0  0  0  0
   -8.8217    0.5188  -21.4406 O   0  0  0  0  0  0  0  0  0  0  0  0
   -9.0628   -1.4341  -22.9297 C   0  0  1  0  0  0  0  0  0  0  0  0
   -8.4992   -0.9058  -24.2766 C   0  0  0  0  0  0  0  0  0  0  0  0
   -8.9775    0.4384  -24.5819 N   0  0  0  0  0  0  0  0  0  0  0  0
   -8.1481    1.3703  -25.3141 C   0  0  0  0  0  0  0  0  0  0  0  0
   -7.6832    2.5332  -24.4883 C   0  0  0  0  0  0  0  0  0  0  0  0
   -7.6792    3.8108  -24.9447 N   0  0  0  0  0  0  0  0  0  0  0  0
   -7.1357    4.4834  -23.9514 C   0  0  0  0  0  0  0  0  0  0  0  0
   -6.8172    3.6322  -22.9609 N   0  0  0  0  0  0  0  0  0  0  0  0
   -7.1547    2.3705  -23.2845 N   0  0  0  0  0  0  0  0  0  0  0  0
  -10.2253    0.8778  -24.2454 C   0  0  0  0  0  0  0  0  0  0  0  0
  -10.5997    2.0279  -24.4435 O   0  0  0  0  0  0  0  0  0  0  0  0
  -11.1140   -0.1462  -23.6222 C   0  0  0  0  0  0  0  0  0  0  0  0
  -12.4819    0.1206  -23.5958 C   0  0  0  0  0  0  0  0  0  0  0  0
  -13.3573   -0.7936  -23.0394 C   0  0  0  0  0  0  0  0  0  0  0  0
  -12.8272   -1.9687  -22.5163 C   0  0  0  0  0  0  0  0  0  0  0  0
  -13.6616   -2.8513  -21.9346 F   0  0  0  0  0  0  0  0  0  0  0  0
  -11.4762   -2.2582  -22.5460 C   0  0  0  0  0  0  0  0  0  0  0  0
  -10.5775   -1.3093  -23.0460 C   0  0  0  0  0  0  0  0  0  0  0  0
   -9.3779   -3.9195  -24.2356 H   0  0  0  0  0  0  0  0  0  0  0  0
   -7.6601   -3.5131  -24.4340 H   0  0  0  0  0  0  0  0  0  0  0  0
   -8.1305   -4.8342  -23.3667 H   0  0  0  0  0  0  0  0  0  0  0  0
   -9.2239   -3.2139  -21.7988 H   0  0  0  0  0  0  0  0  0  0  0  0
   -6.9451   -3.3582  -21.0713 H   0  0  0  0  0  0  0  0  0  0  0  0
   -6.3544   -2.4860  -22.4892 H   0  0  0  0  0  0  0  0  0  0  0  0
   -7.7520   -1.7545  -18.5546 H   0  0  0  0  0  0  0  0  0  0  0  0
   -4.4902    0.3428  -17.1580 H   0  0  0  0  0  0  0  0  0  0  0  0
   -3.1276    1.7223  -18.6675 H   0  0  0  0  0  0  0  0  0  0  0  0
   -2.5065    2.4604  -20.9479 H   0  0  0  0  0  0  0  0  0  0  0  0
   -3.7780    1.5888  -22.9009 H   0  0  0  0  0  0  0  0  0  0  0  0
   -5.7403    0.1550  -22.5766 H   0  0  0  0  0  0  0  0  0  0  0  0
   -7.4025   -0.8865  -24.2321 H   0  0  0  0  0  0  0  0  0  0  0  0
   -8.8031   -1.6089  -25.0648 H   0  0  0  0  0  0  0  0  0  0  0  0
   -7.2775    0.8110  -25.6716 H   0  0  0  0  0  0  0  0  0  0  0  0
   -8.7017    1.7617  -26.1718 H   0  0  0  0  0  0  0  0  0  0  0  0
   -6.9711    5.5559  -23.9119 H   0  0  0  0  0  0  0  0  0  0  0  0
   -6.3971    3.8388  -22.0727 H   0  0  0  0  0  0  0  0  0  0  0  0
  -12.8174    1.0757  -23.9911 H   0  0  0  0  0  0  0  0  0  0  0  0
  -14.4235   -0.6132  -22.9466 H   0  0  0  0  0  0  0  0  0  0  0  0
  -11.1546   -3.2087  -22.1362 H   0  0  0  0  0  0  0  0  0  0  0  0
  1  2  1  0
  2  3  1  0
  3  4  1  0
  4  5  1  0
  5  6  2  0
  6  7  1  0
  7  8  2  0
  8  9  1  0
  9 10  2  0
 10 11  1  0
 11 12  2  0
 12 13  1  0
 13 14  2  0
  4 15  1  0
 15 16  2  0
 15 17  1  0
 17 18  1  6
 18 19  1  0
 19 20  1  0
 20 21  1  0
 21 22  1  0
 22 23  2  0
 23 24  1  0
 24 25  1  0
 19 26  1  0
 26 27  2  0
 26 28  1  0
 28 29  2  0
 29 30  1  0
 30 31  2  0
 31 32  1  0
 31 33  1  0
 33 34  2  0
 17  2  1  0
 25 21  2  0
 34 28  1  0
 14  5  1  0
 34 17  1  0
 14  9  1  0
  1 35  1  0
  1 36  1  0
  1 37  1  0
  2 38  1  1
  3 39  1  0
  3 40  1  0
  6 41  1  0
  8 42  1  0
 10 43  1  0
 11 44  1  0
 12 45  1  0
 13 46  1  0
 18 47  1  0
 18 48  1  0
 20 49  1  0
 20 50  1  0
 23 51  1  0
 24 52  1  0
 29 53  1  0
 30 54  1  0
 33 55  1  0
M  END
$$$$

     RDKit          3D

 63 68  0  0  0  0  0  0  0  0999 V2000
   -7.0038    3.6332  -22.4919 C   0  0  0  0  0  0  0  0  0  0  0  0
   -7.7945    2.6996  -23.2711 N   0  0  0  0  0  0  0  0  0  0  0  0
   -7.5098    2.5317  -24.5807 C   0  0  0  0  0  0  0  0  0  0  0  0
   -6.7405    3.2444  -25.2107 O   0  0  0  0  0  0  0  0  0  0  0  0
   -8.1541    1.3540  -25.3196 C   0  0  0  0  0  0  0  0  0  0  0  0
   -8.9909    0.4664  -24.5526 N   0  0  0  0  0  0  0  0  0  0  0  0
   -8.5149   -0.8812  -24.2696 C   0  0  0  0  0  0  0  0  0  0  0  0
   -9.0812   -1.4224  -22.9343 C   0  0  2  0  0  0  0  0  0  0  0  0
   -8.4754   -0.5748  -21.7869 C   0  0  0  0  0  0  0  0  0  0  0  0
   -8.7816    0.5675  -21.4996 O   0  0  0  0  0  0  0  0  0  0  0  0
   -7.4990   -1.3103  -21.1568 N   0  0  0  0  0  0  0  0  0  0  0  0
   -6.6557   -0.8013  -20.1309 C   0  0  0  0  0  0  0  0  0  0  0  0
   -6.8913   -1.1462  -18.8228 C   0  0  0  0  0  0  0  0  0  0  0  0
   -6.1377   -0.7397  -17.7722 N   0  0  0  0  0  0  0  0  0  0  0  0
   -5.1115    0.0403  -18.0094 C   0  0  0  0  0  0  0  0  0  0  0  0
   -4.7636    0.4915  -19.3162 C   0  0  0  0  0  0  0  0  0  0  0  0
   -3.6688    1.3696  -19.5331 C   0  0  0  0  0  0  0  0  0  0  0  0
   -3.3247    1.7619  -20.7966 C   0  0  0  0  0  0  0  0  0  0  0  0
   -4.0615    1.2873  -21.9008 C   0  0  0  0  0  0  0  0  0  0  0  0
   -5.1441    0.4597  -21.7200 C   0  0  0  0  0  0  0  0  0  0  0  0
   -5.5324    0.0414  -20.4158 C   0  0  0  0  0  0  0  0  0  0  0  0
   -7.2367   -2.5722  -21.8205 C   0  0  0  0  0  0  0  0  0  0  0  0
   -8.5529   -2.8335  -22.5600 C   0  0  2  0  0  0  0  0  0  0  0  0
   -8.4270   -3.8578  -23.6984 C   0  0  0  0  0  0  0  0  0  0  0  0
   -9.7016   -4.2777  -24.2524 N   0  0  0  0  0  0  0  0  0  0  0  0
  -10.5421   -5.1782  -23.6955 C   0  0  0  0  0  0  0  0  0  0  0  0
  -11.6868   -5.2014  -24.4658 C   0  0  0  0  0  0  0  0  0  0  0  0
  -11.4324   -4.2322  -25.4715 C   0  0  0  0  0  0  0  0  0  0  0  0
  -10.2336   -3.6795  -25.3270 N   0  0  0  0  0  0  0  0  0  0  0  0
  -10.5875   -1.2793  -23.0344 C   0  0  0  0  0  0  0  0  0  0  0  0
  -11.4726   -2.2113  -22.4925 C   0  0  0  0  0  0  0  0  0  0  0  0
  -12.8302   -1.9535  -22.4599 C   0  0  0  0  0  0  0  0  0  0  0  0
  -13.8669   -3.0924  -21.6344 Cl  0  0  0  0  0  0  0  0  0  0  0  0
  -13.3717   -0.7950  -23.0098 C   0  0  0  0  0  0  0  0  0  0  0  0
  -12.5099    0.1148  -23.5920 C   0  0  0  0  0  0  0  0  0  0  0  0
  -11.1392   -0.1356  -23.6241 C   0  0  0  0  0  0  0  0  0  0  0  0
  -10.2633    0.8857  -24.2715 C   0  0  0  0  0  0  0  0  0  0  0  0
  -10.6529    2.0236  -24.5010 O   0  0  0  0  0  0  0  0  0  0  0  0
   -7.1381    3.3831  -21.4384 H   0  0  0  0  0  0  0  0  0  0  0  0
   -7.3059    4.6733  -22.6490 H   0  0  0  0  0  0  0  0  0  0  0  0
   -5.9405    3.5497  -22.7450 H   0  0  0  0  0  0  0  0  0  0  0  0
   -8.3736    2.0320  -22.7673 H   0  0  0  0  0  0  0  0  0  0  0  0
   -7.3339    0.7734  -25.7595 H   0  0  0  0  0  0  0  0  0  0  0  0
   -8.7299    1.7725  -26.1488 H   0  0  0  0  0  0  0  0  0  0  0  0
   -7.4209   -0.8604  -24.2118 H   0  0  0  0  0  0  0  0  0  0  0  0
   -8.8104   -1.5524  -25.0834 H   0  0  0  0  0  0  0  0  0  0  0  0
   -7.7615   -1.7480  -18.5661 H   0  0  0  0  0  0  0  0  0  0  0  0
   -4.5271    0.3861  -17.1528 H   0  0  0  0  0  0  0  0  0  0  0  0
   -3.1243    1.7371  -18.6718 H   0  0  0  0  0  0  0  0  0  0  0  0
   -2.4987    2.4510  -20.9568 H   0  0  0  0  0  0  0  0  0  0  0  0
   -3.7860    1.6033  -22.9024 H   0  0  0  0  0  0  0  0  0  0  0  0
   -5.7084    0.1171  -22.5812 H   0  0  0  0  0  0  0  0  0  0  0  0
   -6.3984   -2.4935  -22.5291 H   0  0  0  0  0  0  0  0  0  0  0  0
   -6.9808   -3.3501  -21.0969 H   0  0  0  0  0  0  0  0  0  0  0  0
   -9.2457   -3.2192  -21.8061 H   0  0  0  0  0  0  0  0  0  0  0  0
   -7.8537   -3.4598  -24.5363 H   0  0  0  0  0  0  0  0  0  0  0  0
   -7.9258   -4.7615  -23.3394 H   0  0  0  0  0  0  0  0  0  0  0  0
  -10.2405   -5.7015  -22.7936 H   0  0  0  0  0  0  0  0  0  0  0  0
  -12.5892   -5.7821  -24.2886 H   0  0  0  0  0  0  0  0  0  0  0  0
  -12.0687   -3.8831  -26.2756 H   0  0  0  0  0  0  0  0  0  0  0  0
  -11.1192   -3.1155  -22.0173 H   0  0  0  0  0  0  0  0  0  0  0  0
  -14.4365   -0.5992  -22.9217 H   0  0  0  0  0  0  0  0  0  0  0  0
  -12.8701    1.0497  -24.0107 H   0  0  0  0  0  0  0  0  0  0  0  0
  1  2  1  0
  2  3  1  0
  3  4  2  0
  3  5  1  0
  5  6  1  0
  6  7  1  0
  8  7  1  6
  8  9  1  0
  9 10  2  0
  9 11  1  0
 11 12  1  0
 12 13  2  0
 13 14  1  0
 14 15  2  0
 15 16  1  0
 16 17  2  0
 17 18  1  0
 18 19  2  0
 19 20  1  0
 20 21  2  0
 11 22  1  0
 22 23  1  0
 23 24  1  0
 24 25  1  0
 25 26  1  0
 26 27  2  0
 27 28  1  0
 28 29  2  0
  8 30  1  0
 30 31  2  0
 31 32  1  0
 32 33  1  0
 32 34  2  0
 34 35  1  0
 35 36  2  0
 36 37  1  0
 37 38  2  0
 37  6  1  0
 23  8  1  0
 29 25  1  0
 36 30  1  0
 21 12  1  0
 21 16  1  0
  1 39  1  0
  1 40  1  0
  1 41  1  0
  2 42  1  0
  5 43  1  0
  5 44  1  0
  7 45  1  0
  7 46  1  0
 13 47  1  0
 15 48  1  0
 17 49  1  0
 18 50  1  0
 19 51  1  0
 20 52  1  0
 22 53  1  0
 22 54  1  0
 23 55  1  1
 24 56  1  0
 24 57  1  0
 26 58  1  0
 27 59  1  0
 28 60  1  0
 31 61  1  0
 34 62  1  0
 35 63  1  0
M  END
$$$$

     RDKit          3D

 58 62  0  0  0  0  0  0  0  0999 V2000
   -6.9835    3.5643  -22.4462 C   0  0  0  0  0  0  0  0  0  0  0  0
   -7.7984    2.5718  -23.1639 N   0  0  0  0  0  0  0  0  0  0  0  0
   -7.5071    2.5214  -24.6125 C   0  0  0  0  0  0  0  0  0  0  0  0
   -8.1303    1.3120  -25.3540 C   0  0  0  0  0  0  0  0  0  0  0  0
   -8.9690    0.4446  -24.5559 N   0  0  0  0  0  0  0  0  0  0  0  0
   -8.5045   -0.9015  -24.2747 C   0  0  0  0  0  0  0  0  0  0  0  0
   -9.0596   -1.4127  -22.9273 C   0  0  2  0  0  0  0  0  0  0  0  0
   -8.4007   -0.5559  -21.8158 C   0  0  0  0  0  0  0  0  0  0  0  0
   -8.5612    0.6341  -21.6264 O   0  0  0  0  0  0  0  0  0  0  0  0
   -7.5040   -1.3193  -21.1238 N   0  0  0  0  0  0  0  0  0  0  0  0
   -6.6564   -0.7927  -20.1104 C   0  0  0  0  0  0  0  0  0  0  0  0
   -6.8901   -1.1364  -18.8031 C   0  0  0  0  0  0  0  0  0  0  0  0
   -6.1347   -0.7275  -17.7564 N   0  0  0  0  0  0  0  0  0  0  0  0
   -5.1120    0.0532  -18.0047 C   0  0  0  0  0  0  0  0  0  0  0  0
   -4.7679    0.5027  -19.3129 C   0  0  0  0  0  0  0  0  0  0  0  0
   -3.6742    1.3812  -19.5349 C   0  0  0  0  0  0  0  0  0  0  0  0
   -3.3332    1.7711  -20.7988 C   0  0  0  0  0  0  0  0  0  0  0  0
   -4.0687    1.2923  -21.9042 C   0  0  0  0  0  0  0  0  0  0  0  0
   -5.1438    0.4554  -21.7186 C   0  0  0  0  0  0  0  0  0  0  0  0
   -5.5412    0.0516  -20.4108 C   0  0  0  0  0  0  0  0  0  0  0  0
   -7.2298   -2.5717  -21.7936 C   0  0  0  0  0  0  0  0  0  0  0  0
   -8.5357   -2.8259  -22.5539 C   0  0  2  0  0  0  0  0  0  0  0  0
   -8.4232   -3.8129  -23.7094 C   0  0  0  0  0  0  0  0  0  0  0  0
  -10.5708   -1.2702  -23.0140 C   0  0  0  0  0  0  0  0  0  0  0  0
  -11.4636   -2.2217  -22.5064 C   0  0  0  0  0  0  0  0  0  0  0  0
  -12.8127   -1.9365  -22.4658 C   0  0  0  0  0  0  0  0  0  0  0  0
  -13.6370   -2.8071  -21.8538 F   0  0  0  0  0  0  0  0  0  0  0  0
  -13.3530   -0.7763  -23.0050 C   0  0  0  0  0  0  0  0  0  0  0  0
  -12.4880    0.1303  -23.5857 C   0  0  0  0  0  0  0  0  0  0  0  0
  -11.1157   -0.1169  -23.6067 C   0  0  0  0  0  0  0  0  0  0  0  0
  -10.2157    0.8930  -24.2427 C   0  0  0  0  0  0  0  0  0  0  0  0
  -10.5526    2.0632  -24.4323 O   0  0  0  0  0  0  0  0  0  0  0  0
   -7.1950    3.4970  -21.3775 H   0  0  0  0  0  0  0  0  0  0  0  0
   -5.9131    3.3714  -22.6021 H   0  0  0  0  0  0  0  0  0  0  0  0
   -7.2254    4.5723  -22.8024 H   0  0  0  0  0  0  0  0  0  0  0  0
   -7.6739    1.6476  -22.7259 H   0  0  0  0  0  0  0  0  0  0  0  0
   -8.8001    2.7914  -23.0430 H   0  0  0  0  0  0  0  0  0  0  0  0
   -7.8900    3.4388  -25.0688 H   0  0  0  0  0  0  0  0  0  0  0  0
   -6.4219    2.5110  -24.7749 H   0  0  0  0  0  0  0  0  0  0  0  0
   -7.3447    0.6770  -25.7753 H   0  0  0  0  0  0  0  0  0  0  0  0
   -8.7241    1.6625  -26.2027 H   0  0  0  0  0  0  0  0  0  0  0  0
   -8.8167   -1.5740  -25.0846 H   0  0  0  0  0  0  0  0  0  0  0  0
   -7.4086   -0.8790  -24.2263 H   0  0  0  0  0  0  0  0  0  0  0  0
   -7.7554   -1.7478  -18.5514 H   0  0  0  0  0  0  0  0  0  0  0  0
   -4.5305    0.4082  -17.1506 H   0  0  0  0  0  0  0  0  0  0  0  0
   -3.1274    1.7476  -18.6729 H   0  0  0  0  0  0  0  0  0  0  0  0
   -2.5072    2.4589  -20.9608 H   0  0  0  0  0  0  0  0  0  0  0  0
   -3.7893    1.6035  -22.9064 H   0  0  0  0  0  0  0  0  0  0  0  0
   -5.6828    0.0871  -22.5862 H   0  0  0  0  0  0  0  0  0  0  0  0
   -6.9834   -3.3443  -21.0642 H   0  0  0  0  0  0  0  0  0  0  0  0
   -6.3823   -2.4717  -22.4897 H   0  0  0  0  0  0  0  0  0  0  0  0
   -9.2291   -3.2159  -21.8046 H   0  0  0  0  0  0  0  0  0  0  0  0
   -8.1355   -4.8087  -23.3623 H   0  0  0  0  0  0  0  0  0  0  0  0
   -9.3740   -3.9064  -24.2468 H   0  0  0  0  0  0  0  0  0  0  0  0
   -7.6637   -3.4912  -24.4308 H   0  0  0  0  0  0  0  0  0  0  0  0
  -11.1381   -3.1552  -22.0621 H   0  0  0  0  0  0  0  0  0  0  0  0
  -14.4182   -0.5957  -22.9116 H   0  0  0  0  0  0  0  0  0  0  0  0
  -12.8552    1.0583  -24.0106 H   0  0  0  0  0  0  0  0  0  0  0  0
  1  2  1  0
  2  3  1  0
  3  4  1  0
  4  5  1  0
  5  6  1  0
  7  6  1  6
  7  8  1  0
  8  9  2  0
  8 10  1  0
 10 11  1  0
 11 12  2  0
 12 13  1  0
 13 14  2  0
 14 15  1  0
 15 16  2  0
 16 17  1  0
 17 18  2  0
 18 19  1  0
 19 20  2  0
 10 21  1  0
 21 22  1  0
 22 23  1  0
  7 24  1  0
 24 25  2  0
 25 26  1  0
 26 27  1  0
 26 28  2  0
 28 29  1  0
 29 30  2  0
 30 31  1  0
 31 32  2  0
 31  5  1  0
 22  7  1  0
 30 24  1  0
 20 11  1  0
 20 15  1  0
  1 33  1  0
  1 34  1  0
  1 35  1  0
  2 36  1  0
  2 37  1  0
  3 38  1  0
  3 39  1  0
  4 40  1  0
  4 41  1  0
  6 42  1  0
  6 43  1  0
 12 44  1  0
 14 45  1  0
 16 46  1  0
 17 47  1  0
 18 48  1  0
 19 49  1  0
 21 50  1  0
 21 51  1  0
 22 52  1  1
 23 53  1  0
 23 54  1  0
 23 55  1  0
 25 56  1  0
 28 57  1  0
 29 58  1  0
M  CHG  1   2   1
M  END
$$$$

     RDKit          3D

 57 60  0  0  0  0  0  0  0  0999 V2000
   -7.7582   -8.3898  -25.4525 C   0  0  0  0  0  0  0  0  0  0  0  0
   -7.3612   -7.9367  -24.0443 C   0  0  0  0  0  0  0  0  0  0  0  0
   -6.8674   -6.5131  -24.0683 C   0  0  0  0  0  0  0  0  0  0  0  0
   -5.6808   -6.2529  -24.1455 O   0  0  0  0  0  0  0  0  0  0  0  0
   -7.8425   -5.5457  -24.0697 N   0  0  0  0  0  0  0  0  0  0  0  0
   -7.5977   -4.1741  -24.2844 C   0  0  0  0  0  0  0  0  0  0  0  0
   -6.6061   -3.7472  -25.1667 C   0  0  0  0  0  0  0  0  0  0  0  0
   -6.3990   -2.3891  -25.3692 C   0  0  0  0  0  0  0  0  0  0  0  0
   -7.1508   -1.4470  -24.6797 C   0  0  0  0  0  0  0  0  0  0  0  0
   -8.1284   -1.8759  -23.7758 C   0  0  0  0  0  0  0  0  0  0  0  0
   -8.7785   -0.9102  -22.9438 N   0  0  0  0  0  0  0  0  0  0  0  0
   -9.7969   -0.0573  -23.5659 C   0  0  0  0  0  0  0  0  0  0  0  0
  -11.0551   -0.8483  -23.8627 C   0  0  0  0  0  0  0  0  0  0  0  0
  -11.6743   -1.4804  -22.7943 C   0  0  0  0  0  0  0  0  0  0  0  0
  -12.8798   -2.1469  -22.9559 C   0  0  0  0  0  0  0  0  0  0  0  0
  -13.4185   -2.3038  -24.2279 C   0  0  0  0  0  0  0  0  0  0  0  0
  -12.7539   -1.7711  -25.3208 C   0  0  0  0  0  0  0  0  0  0  0  0
  -11.5933   -1.0297  -25.1351 C   0  0  0  0  0  0  0  0  0  0  0  0
   -8.1707   -0.4766  -21.7746 C   0  0  0  0  0  0  0  0  0  0  0  0
   -8.3922    0.6202  -21.3006 O   0  0  0  0  0  0  0  0  0  0  0  0
   -7.2550   -1.4854  -21.0669 C   0  0  0  0  0  0  0  0  0  0  0  0
   -6.4754   -0.8851  -19.9361 C   0  0  0  0  0  0  0  0  0  0  0  0
   -6.7425   -1.1684  -18.6230 C   0  0  0  0  0  0  0  0  0  0  0  0
   -6.0704   -0.6555  -17.5567 N   0  0  0  0  0  0  0  0  0  0  0  0
   -5.0885    0.1749  -17.8130 C   0  0  0  0  0  0  0  0  0  0  0  0
   -4.7010    0.5592  -19.1274 C   0  0  0  0  0  0  0  0  0  0  0  0
   -3.6437    1.4700  -19.3697 C   0  0  0  0  0  0  0  0  0  0  0  0
   -3.3368    1.8666  -20.6415 C   0  0  0  0  0  0  0  0  0  0  0  0
   -4.0324    1.3201  -21.7407 C   0  0  0  0  0  0  0  0  0  0  0  0
   -5.0354    0.4087  -21.5363 C   0  0  0  0  0  0  0  0  0  0  0  0
   -5.4145    0.0226  -20.2209 C   0  0  0  0  0  0  0  0  0  0  0  0
   -8.3773   -3.2321  -23.6105 C   0  0  0  0  0  0  0  0  0  0  0  0
   -6.9143   -8.2767  -26.1405 H   0  0  0  0  0  0  0  0  0  0  0  0
   -8.0627   -9.4389  -25.4522 H   0  0  0  0  0  0  0  0  0  0  0  0
   -8.5936   -7.8012  -25.8467 H   0  0  0  0  0  0  0  0  0  0  0  0
   -8.1993   -8.0323  -23.3502 H   0  0  0  0  0  0  0  0  0  0  0  0
   -6.5263   -8.5278  -23.6629 H   0  0  0  0  0  0  0  0  0  0  0  0
   -8.7758   -5.7974  -23.7802 H   0  0  0  0  0  0  0  0  0  0  0  0
   -6.0032   -4.4741  -25.6915 H   0  0  0  0  0  0  0  0  0  0  0  0
   -5.6255   -2.0616  -26.0599 H   0  0  0  0  0  0  0  0  0  0  0  0
   -6.9562   -0.3826  -24.8061 H   0  0  0  0  0  0  0  0  0  0  0  0
   -9.9858    0.7491  -22.8486 H   0  0  0  0  0  0  0  0  0  0  0  0
   -9.4037    0.3975  -24.4843 H   0  0  0  0  0  0  0  0  0  0  0  0
  -11.1340   -1.4843  -21.8608 H   0  0  0  0  0  0  0  0  0  0  0  0
  -13.3894   -2.5693  -22.0976 H   0  0  0  0  0  0  0  0  0  0  0  0
  -14.3251   -2.8809  -24.3727 H   0  0  0  0  0  0  0  0  0  0  0  0
  -13.1032   -1.9810  -26.3251 H   0  0  0  0  0  0  0  0  0  0  0  0
  -11.0767   -0.6595  -26.0099 H   0  0  0  0  0  0  0  0  0  0  0  0
   -6.5642   -1.9000  -21.8097 H   0  0  0  0  0  0  0  0  0  0  0  0
   -7.8795   -2.3173  -20.7088 H   0  0  0  0  0  0  0  0  0  0  0  0
   -7.5500   -1.8539  -18.3623 H   0  0  0  0  0  0  0  0  0  0  0  0
   -4.5765    0.6188  -16.9581 H   0  0  0  0  0  0  0  0  0  0  0  0
   -3.1011    1.8640  -18.5170 H   0  0  0  0  0  0  0  0  0  0  0  0
   -2.5691    2.6138  -20.8102 H   0  0  0  0  0  0  0  0  0  0  0  0
   -3.7665    1.6231  -22.7498 H   0  0  0  0  0  0  0  0  0  0  0  0
   -5.5632   -0.0129  -22.3880 H   0  0  0  0  0  0  0  0  0  0  0  0
   -9.1248   -3.5509  -22.8875 H   0  0  0  0  0  0  0  0  0  0  0  0
  1  2  1  0
  2  3  1  0
  3  4  2  0
  3  5  1  0
  5  6  1  0
  6  7  2  0
  7  8  1  0
  8  9  2  0
  9 10  1  0
 10 11  1  0
 11 12  1  0
 12 13  1  0
 13 14  2  0
 14 15  1  0
 15 16  2  0
 16 17  1  0
 17 18  2  0
 11 19  1  0
 19 20  2  0
 19 21  1  0
 21 22  1  0
 22 23  2  0
 23 24  1  0
 24 25  2  0
 25 26  1  0
 26 27  2  0
 27 28  1  0
 28 29  2  0
 29 30  1  0
 30 31  2  0
 10 32  2  0
 32  6  1  0
 18 13  1  0
 31 22  1  0
 31 26  1  0
  1 33  1  0
  1 34  1  0
  1 35  1  0
  2 36  1  0
  2 37  1  0
  5 38  1  0
  7 39  1  0
  8 40  1  0
  9 41  1  0
 12 42  1  0
 12 43  1  0
 14 44  1  0
 15 45  1  0
 16 46  1  0
 17 47  1  0
 18 48  1  0
 21 49  1  0
 21 50  1  0
 23 51  1  0
 25 52  1  0
 27 53  1  0
 28 54  1  0
 29 55  1  0
 30 56  1  0
 32 57  1  0
M  END
$$$$

     RDKit          3D

 66 71  0  0  0  0  0  0  0  0999 V2000
   -7.0091    3.6327  -22.4894 C   0  0  0  0  0  0  0  0  0  0  0  0
   -7.7957    2.6945  -23.2687 N   0  0  0  0  0  0  0  0  0  0  0  0
   -7.5046    2.5242  -24.5778 C   0  0  0  0  0  0  0  0  0  0  0  0
   -6.7357    3.2404  -25.2042 O   0  0  0  0  0  0  0  0  0  0  0  0
   -8.1583    1.3526  -25.3202 C   0  0  0  0  0  0  0  0  0  0  0  0
   -8.9884    0.4586  -24.5548 N   0  0  0  0  0  0  0  0  0  0  0  0
   -8.5103   -0.8890  -24.2805 C   0  0  0  0  0  0  0  0  0  0  0  0
   -9.0687   -1.4265  -22.9394 C   0  0  2  0  0  0  0  0  0  0  0  0
   -8.4704   -0.5760  -21.7907 C   0  0  0  0  0  0  0  0  0  0  0  0
   -8.7798    0.5665  -21.5101 O   0  0  0  0  0  0  0  0  0  0  0  0
   -7.4967   -1.3113  -21.1517 N   0  0  0  0  0  0  0  0  0  0  0  0
   -6.6565   -0.7940  -20.1252 C   0  0  0  0  0  0  0  0  0  0  0  0
   -6.8878   -1.1452  -18.8188 C   0  0  0  0  0  0  0  0  0  0  0  0
   -6.1266   -0.7520  -17.7670 N   0  0  0  0  0  0  0  0  0  0  0  0
   -5.1033    0.0303  -18.0104 C   0  0  0  0  0  0  0  0  0  0  0  0
   -4.7549    0.4854  -19.3154 C   0  0  0  0  0  0  0  0  0  0  0  0
   -3.6646    1.3676  -19.5324 C   0  0  0  0  0  0  0  0  0  0  0  0
   -3.3242    1.7617  -20.7960 C   0  0  0  0  0  0  0  0  0  0  0  0
   -4.0595    1.2874  -21.9031 C   0  0  0  0  0  0  0  0  0  0  0  0
   -5.1409    0.4607  -21.7213 C   0  0  0  0  0  0  0  0  0  0  0  0
   -5.5306    0.0460  -20.4159 C   0  0  0  0  0  0  0  0  0  0  0  0
   -7.2203   -2.5768  -21.8067 C   0  0  0  0  0  0  0  0  0  0  0  0
   -8.5394   -2.8315  -22.5490 C   0  0  2  0  0  0  0  0  0  0  0  0
   -8.4715   -3.8562  -23.6846 C   0  0  0  0  0  0  0  0  0  0  0  0
   -8.2190   -5.2109  -23.2411 N   0  0  0  0  0  0  0  0  0  0  0  0
   -6.9579   -5.7036  -23.1163 C   0  0  0  0  0  0  0  0  0  0  0  0
   -6.7199   -6.9378  -22.4809 C   0  0  0  0  0  0  0  0  0  0  0  0
   -5.4094   -7.3483  -22.4387 C   0  0  0  0  0  0  0  0  0  0  0  0
   -4.3929   -6.6784  -22.9990 N   0  0  0  0  0  0  0  0  0  0  0  0
   -4.7366   -5.5400  -23.5833 C   0  0  0  0  0  0  0  0  0  0  0  0
   -5.9495   -4.9930  -23.6408 N   0  0  0  0  0  0  0  0  0  0  0  0
  -10.5779   -1.3025  -23.0407 C   0  0  0  0  0  0  0  0  0  0  0  0
  -11.4688   -2.2521  -22.5333 C   0  0  0  0  0  0  0  0  0  0  0  0
  -12.8245   -1.9772  -22.4822 C   0  0  0  0  0  0  0  0  0  0  0  0
  -13.8622   -3.1034  -21.6486 Cl  0  0  0  0  0  0  0  0  0  0  0  0
  -13.3629   -0.8037  -23.0093 C   0  0  0  0  0  0  0  0  0  0  0  0
  -12.4986    0.1062  -23.5847 C   0  0  0  0  0  0  0  0  0  0  0  0
  -11.1293   -0.1480  -23.6155 C   0  0  0  0  0  0  0  0  0  0  0  0
  -10.2563    0.8740  -24.2604 C   0  0  0  0  0  0  0  0  0  0  0  0
  -10.6476    2.0170  -24.4850 O   0  0  0  0  0  0  0  0  0  0  0  0
   -5.9448    3.5509  -22.7470 H   0  0  0  0  0  0  0  0  0  0  0  0
   -7.3105    4.6754  -22.6488 H   0  0  0  0  0  0  0  0  0  0  0  0
   -7.1410    3.3834  -21.4332 H   0  0  0  0  0  0  0  0  0  0  0  0
   -8.3553    2.0129  -22.7584 H   0  0  0  0  0  0  0  0  0  0  0  0
   -7.3396    0.7793  -25.7662 H   0  0  0  0  0  0  0  0  0  0  0  0
   -8.7363    1.7803  -26.1431 H   0  0  0  0  0  0  0  0  0  0  0  0
   -7.4152   -0.8595  -24.2373 H   0  0  0  0  0  0  0  0  0  0  0  0
   -8.8100   -1.5680  -25.0895 H   0  0  0  0  0  0  0  0  0  0  0  0
   -7.7545   -1.7562  -18.5685 H   0  0  0  0  0  0  0  0  0  0  0  0
   -4.5160    0.3708  -17.1559 H   0  0  0  0  0  0  0  0  0  0  0  0
   -3.1211    1.7321  -18.6677 H   0  0  0  0  0  0  0  0  0  0  0  0
   -2.4997    2.4509  -20.9547 H   0  0  0  0  0  0  0  0  0  0  0  0
   -3.7844    1.6063  -22.9047 H   0  0  0  0  0  0  0  0  0  0  0  0
   -5.7076    0.1182  -22.5824 H   0  0  0  0  0  0  0  0  0  0  0  0
   -6.3648   -2.4907  -22.4949 H   0  0  0  0  0  0  0  0  0  0  0  0
   -6.9660   -3.3487  -21.0747 H   0  0  0  0  0  0  0  0  0  0  0  0
   -9.2255   -3.2057  -21.7840 H   0  0  0  0  0  0  0  0  0  0  0  0
   -7.6430   -3.6071  -24.3457 H   0  0  0  0  0  0  0  0  0  0  0  0
   -9.3952   -3.8291  -24.2766 H   0  0  0  0  0  0  0  0  0  0  0  0
   -8.9703   -5.7156  -22.7982 H   0  0  0  0  0  0  0  0  0  0  0  0
   -7.5478   -7.5240  -22.0919 H   0  0  0  0  0  0  0  0  0  0  0  0
   -5.1423   -8.2709  -21.9325 H   0  0  0  0  0  0  0  0  0  0  0  0
   -3.9359   -5.0001  -24.0876 H   0  0  0  0  0  0  0  0  0  0  0  0
  -11.1277   -3.1874  -22.1078 H   0  0  0  0  0  0  0  0  0  0  0  0
  -14.4265   -0.6035  -22.9227 H   0  0  0  0  0  0  0  0  0  0  0  0
  -12.8553    1.0443  -23.9977 H   0  0  0  0  0  0  0  0  0  0  0  0
  1  2  1  0
  2  3  1  0
  3  4  2  0
  3  5  1  0
  5  6  1  0
  6  7  1  0
  8  7  1  6
  8  9  1  0
  9 10  2  0
  9 11  1  0
 11 12  1  0
 12 13  2  0
 13 14  1  0
 14 15  2  0
 15 16  1  0
 16 17  2  0
 17 18  1  0
 18 19  2  0
 19 20  1  0
 20 21  2  0
 11 22  1  0
 22 23  1  0
 23 24  1  0
 24 25  1  0
 25 26  1  0
 26 27  2  0
 27 28  1  0
 28 29  2  0
 29 30  1  0
 30 31  2  0
  8 32  1  0
 32 33  2  0
 33 34  1  0
 34 35  1  0
 34 36  2  0
 36 37  1  0
 37 38  2  0
 38 39  1  0
 39 40  2  0
 39  6  1  0
 23  8  1  0
 31 26  1  0
 38 32  1  0
 21 12  1  0
 21 16  1  0
  1 41  1  0
  1 42  1  0
  1 43  1  0
  2 44  1  0
  5 45  1  0
  5 46  1  0
  7 47  1  0
  7 48  1  0
 13 49  1  0
 15 50  1  0
 17 51  1  0
 18 52  1  0
 19 53  1  0
 20 54  1  0
 22 55  1  0
 22 56  1  0
 23 57  1  1
 24 58  1  0
 24 59  1  0
 25 60  1  0
 27 61  1  0
 28 62  1  0
 30 63  1  0
 33 64  1  0
 36 65  1  0
 37 66  1  0
M  END
$$$$

     RDKit          3D

 67 72  0  0  0  0  0  0  0  0999 V2000
   -7.0120    3.6321  -22.4893 C   0  0  0  0  0  0  0  0  0  0  0  0
   -7.7966    2.6906  -23.2657 N   0  0  0  0  0  0  0  0  0  0  0  0
   -7.5044    2.5221  -24.5754 C   0  0  0  0  0  0  0  0  0  0  0  0
   -6.7344    3.2403  -25.2013 O   0  0  0  0  0  0  0  0  0  0  0  0
   -8.1560    1.3528  -25.3198 C   0  0  0  0  0  0  0  0  0  0  0  0
   -8.9852    0.4584  -24.5546 N   0  0  0  0  0  0  0  0  0  0  0  0
   -8.5090   -0.8877  -24.2815 C   0  0  0  0  0  0  0  0  0  0  0  0
   -9.0661   -1.4241  -22.9396 C   0  0  2  0  0  0  0  0  0  0  0  0
   -8.4680   -0.5775  -21.7886 C   0  0  0  0  0  0  0  0  0  0  0  0
   -8.7761    0.5666  -21.5097 O   0  0  0  0  0  0  0  0  0  0  0  0
   -7.5004   -1.3158  -21.1445 N   0  0  0  0  0  0  0  0  0  0  0  0
   -6.6542   -0.8007  -20.1227 C   0  0  0  0  0  0  0  0  0  0  0  0
   -6.8862   -1.1503  -18.8164 C   0  0  0  0  0  0  0  0  0  0  0  0
   -6.1262   -0.7523  -17.7658 N   0  0  0  0  0  0  0  0  0  0  0  0
   -5.1021    0.0272  -18.0109 C   0  0  0  0  0  0  0  0  0  0  0  0
   -4.7556    0.4824  -19.3157 C   0  0  0  0  0  0  0  0  0  0  0  0
   -3.6670    1.3661  -19.5326 C   0  0  0  0  0  0  0  0  0  0  0  0
   -3.3269    1.7601  -20.7947 C   0  0  0  0  0  0  0  0  0  0  0  0
   -4.0615    1.2851  -21.9027 C   0  0  0  0  0  0  0  0  0  0  0  0
   -5.1421    0.4575  -21.7216 C   0  0  0  0  0  0  0  0  0  0  0  0
   -5.5313    0.0412  -20.4168 C   0  0  0  0  0  0  0  0  0  0  0  0
   -7.2174   -2.5726  -21.8087 C   0  0  0  0  0  0  0  0  0  0  0  0
   -8.5289   -2.8246  -22.5596 C   0  0  2  0  0  0  0  0  0  0  0  0
   -8.4257   -3.8419  -23.6963 C   0  0  0  0  0  0  0  0  0  0  0  0
   -8.1141   -5.1612  -23.2145 N   0  0  0  0  0  0  0  0  0  0  0  0
   -6.8594   -5.7014  -23.1445 C   0  0  0  0  0  0  0  0  0  0  0  0
   -5.4564   -4.9947  -23.9002 S   0  0  0  0  0  0  0  0  0  0  0  0
   -4.5358   -6.3535  -23.3284 C   0  0  0  0  0  0  0  0  0  0  0  0
   -5.1929   -7.2302  -22.6454 N   0  0  0  0  0  0  0  0  0  0  0  0
   -6.5233   -6.8752  -22.5385 C   0  0  0  0  0  0  0  0  0  0  0  0
   -7.4912   -7.7863  -21.8463 C   0  0  0  0  0  0  0  0  0  0  0  0
  -10.5760   -1.3046  -23.0392 C   0  0  0  0  0  0  0  0  0  0  0  0
  -11.4678   -2.2562  -22.5355 C   0  0  0  0  0  0  0  0  0  0  0  0
  -12.8227   -1.9789  -22.4838 C   0  0  0  0  0  0  0  0  0  0  0  0
  -13.8657   -3.1084  -21.6617 Cl  0  0  0  0  0  0  0  0  0  0  0  0
  -13.3602   -0.8044  -23.0114 C   0  0  0  0  0  0  0  0  0  0  0  0
  -12.4957    0.1047  -23.5868 C   0  0  0  0  0  0  0  0  0  0  0  0
  -11.1268   -0.1511  -23.6177 C   0  0  0  0  0  0  0  0  0  0  0  0
  -10.2535    0.8715  -24.2600 C   0  0  0  0  0  0  0  0  0  0  0  0
  -10.6470    2.0136  -24.4801 O   0  0  0  0  0  0  0  0  0  0  0  0
   -5.9478    3.5504  -22.7458 H   0  0  0  0  0  0  0  0  0  0  0  0
   -7.3124    4.6751  -22.6488 H   0  0  0  0  0  0  0  0  0  0  0  0
   -7.1415    3.3851  -21.4326 H   0  0  0  0  0  0  0  0  0  0  0  0
   -8.3451    2.0029  -22.7540 H   0  0  0  0  0  0  0  0  0  0  0  0
   -7.3399    0.7800  -25.7714 H   0  0  0  0  0  0  0  0  0  0  0  0
   -8.7381    1.7797  -26.1392 H   0  0  0  0  0  0  0  0  0  0  0  0
   -8.8097   -1.5643  -25.0926 H   0  0  0  0  0  0  0  0  0  0  0  0
   -7.4136   -0.8654  -24.2398 H   0  0  0  0  0  0  0  0  0  0  0  0
   -7.7515   -1.7631  -18.5655 H   0  0  0  0  0  0  0  0  0  0  0  0
   -4.5061    0.3655  -17.1604 H   0  0  0  0  0  0  0  0  0  0  0  0
   -3.1203    1.7300  -18.6688 H   0  0  0  0  0  0  0  0  0  0  0  0
   -2.5026    2.4487  -20.9548 H   0  0  0  0  0  0  0  0  0  0  0  0
   -3.7858    1.6049  -22.9032 H   0  0  0  0  0  0  0  0  0  0  0  0
   -5.7071    0.1188  -22.5860 H   0  0  0  0  0  0  0  0  0  0  0  0
   -6.9732   -3.3579  -21.0875 H   0  0  0  0  0  0  0  0  0  0  0  0
   -6.3603   -2.4809  -22.4933 H   0  0  0  0  0  0  0  0  0  0  0  0
   -9.2083   -3.2198  -21.7994 H   0  0  0  0  0  0  0  0  0  0  0  0
   -9.3675   -3.8665  -24.2607 H   0  0  0  0  0  0  0  0  0  0  0  0
   -7.6398   -3.5355  -24.3914 H   0  0  0  0  0  0  0  0  0  0  0  0
   -8.8618   -5.6878  -22.7861 H   0  0  0  0  0  0  0  0  0  0  0  0
   -3.4895   -6.4508  -23.5813 H   0  0  0  0  0  0  0  0  0  0  0  0
   -6.9208   -8.6240  -21.4508 H   0  0  0  0  0  0  0  0  0  0  0  0
   -8.2522   -8.1962  -22.5248 H   0  0  0  0  0  0  0  0  0  0  0  0
   -8.0207   -7.3151  -21.0082 H   0  0  0  0  0  0  0  0  0  0  0  0
  -11.1309   -3.1965  -22.1146 H   0  0  0  0  0  0  0  0  0  0  0  0
  -14.4247   -0.6073  -22.9295 H   0  0  0  0  0  0  0  0  0  0  0  0
  -12.8566    1.0437  -23.9946 H   0  0  0  0  0  0  0  0  0  0  0  0
  1  2  1  0
  2  3  1  0
  3  4  2  0
  3  5  1  0
  5  6  1  0
  6  7  1  0
  8  7  1  6
  8  9  1  0
  9 10  2  0
  9 11  1  0
 11 12  1  0
 12 13  2  0
 13 14  1  0
 14 15  2  0
 15 16  1  0
 16 17  2  0
 17 18  1  0
 18 19  2  0
 19 20  1  0
 20 21  2  0
 11 22  1  0
 22 23  1  0
 23 24  1  0
 24 25  1  0
 25 26  1  0
 26 27  1  0
 27 28  1  0
 28 29  2  0
 29 30  1  0
 30 31  1  0
  8 32  1  0
 32 33  2  0
 33 34  1  0
 34 35  1  0
 34 36  2  0
 36 37  1  0
 37 38  2  0
 38 39  1  0
 39 40  2  0
 39  6  1  0
 23  8  1  0
 30 26  2  0
 38 32  1  0
 21 12  1  0
 21 16  1  0
  1 41  1  0
  1 42  1  0
  1 43  1  0
  2 44  1  0
  5 45  1  0
  5 46  1  0
  7 47  1  0
  7 48  1  0
 13 49  1  0
 15 50  1  0
 17 51  1  0
 18 52  1  0
 19 53  1  0
 20 54  1  0
 22 55  1  0
 22 56  1  0
 23 57  1  1
 24 58  1  0
 24 59  1  0
 25 60  1  0
 28 61  1  0
 31 62  1  0
 31 63  1  0
 31 64  1  0
 33 65  1  0
 36 66  1  0
 37 67  1  0
M  END
$$$$

     RDKit          3D

 67 72  0  0  0  0  0  0  0  0999 V2000
   -7.0205    3.6303  -22.4838 C   0  0  0  0  0  0  0  0  0  0  0  0
   -7.7881    2.6786  -23.2610 N   0  0  0  0  0  0  0  0  0  0  0  0
   -7.4949    2.5158  -24.5707 C   0  0  0  0  0  0  0  0  0  0  0  0
   -6.7251    3.2413  -25.1869 O   0  0  0  0  0  0  0  0  0  0  0  0
   -8.1610    1.3596  -25.3210 C   0  0  0  0  0  0  0  0  0  0  0  0
   -8.9841    0.4597  -24.5550 N   0  0  0  0  0  0  0  0  0  0  0  0
   -8.5061   -0.8878  -24.2871 C   0  0  0  0  0  0  0  0  0  0  0  0
   -9.0669   -1.4250  -22.9438 C   0  0  2  0  0  0  0  0  0  0  0  0
   -8.4587   -0.5862  -21.7902 C   0  0  0  0  0  0  0  0  0  0  0  0
   -8.7460    0.5614  -21.5120 O   0  0  0  0  0  0  0  0  0  0  0  0
   -7.4931   -1.3312  -21.1499 N   0  0  0  0  0  0  0  0  0  0  0  0
   -6.6487   -0.8080  -20.1288 C   0  0  0  0  0  0  0  0  0  0  0  0
   -6.8813   -1.1585  -18.8219 C   0  0  0  0  0  0  0  0  0  0  0  0
   -6.1153   -0.7723  -17.7714 N   0  0  0  0  0  0  0  0  0  0  0  0
   -5.0904    0.0056  -18.0182 C   0  0  0  0  0  0  0  0  0  0  0  0
   -4.7442    0.4670  -19.3205 C   0  0  0  0  0  0  0  0  0  0  0  0
   -3.6613    1.3609  -19.5302 C   0  0  0  0  0  0  0  0  0  0  0  0
   -3.3270    1.7600  -20.7936 C   0  0  0  0  0  0  0  0  0  0  0  0
   -4.0568    1.2871  -21.9062 C   0  0  0  0  0  0  0  0  0  0  0  0
   -5.1372    0.4576  -21.7270 C   0  0  0  0  0  0  0  0  0  0  0  0
   -5.5257    0.0373  -20.4224 C   0  0  0  0  0  0  0  0  0  0  0  0
   -7.2195   -2.5876  -21.8195 C   0  0  0  0  0  0  0  0  0  0  0  0
   -8.5398   -2.8265  -22.5562 C   0  0  2  0  0  0  0  0  0  0  0  0
   -8.4495   -3.8485  -23.6855 C   0  0  0  0  0  0  0  0  0  0  0  0
   -8.1839   -5.1869  -23.2255 N   0  0  0  0  0  0  0  0  0  0  0  0
   -6.9213   -5.6783  -23.0455 C   0  0  0  0  0  0  0  0  0  0  0  0
   -5.7263   -5.1856  -23.4757 C   0  0  0  0  0  0  0  0  0  0  0  0
   -4.6245   -5.9481  -23.1876 N   0  0  0  0  0  0  0  0  0  0  0  0
   -4.9454   -7.0174  -22.5369 C   0  0  0  0  0  0  0  0  0  0  0  0
   -3.9551   -8.0328  -22.0840 C   0  0  0  0  0  0  0  0  0  0  0  0
   -6.6464   -7.1924  -22.2141 S   0  0  0  0  0  0  0  0  0  0  0  0
  -10.5764   -1.3080  -23.0442 C   0  0  0  0  0  0  0  0  0  0  0  0
  -11.4694   -2.2672  -22.5554 C   0  0  0  0  0  0  0  0  0  0  0  0
  -12.8245   -1.9912  -22.5140 C   0  0  0  0  0  0  0  0  0  0  0  0
  -13.8722   -3.1315  -21.7151 Cl  0  0  0  0  0  0  0  0  0  0  0  0
  -13.3598   -0.8087  -23.0249 C   0  0  0  0  0  0  0  0  0  0  0  0
  -12.4939    0.1056  -23.5883 C   0  0  0  0  0  0  0  0  0  0  0  0
  -11.1253   -0.1502  -23.6130 C   0  0  0  0  0  0  0  0  0  0  0  0
  -10.2496    0.8731  -24.2512 C   0  0  0  0  0  0  0  0  0  0  0  0
  -10.6370    2.0158  -24.4747 O   0  0  0  0  0  0  0  0  0  0  0  0
   -7.1481    3.3873  -21.4226 H   0  0  0  0  0  0  0  0  0  0  0  0
   -7.3198    4.6741  -22.6503 H   0  0  0  0  0  0  0  0  0  0  0  0
   -5.9590    3.5514  -22.7446 H   0  0  0  0  0  0  0  0  0  0  0  0
   -8.3087    1.9766  -22.7432 H   0  0  0  0  0  0  0  0  0  0  0  0
   -8.7466    1.7982  -26.1339 H   0  0  0  0  0  0  0  0  0  0  0  0
   -7.3493    0.7919  -25.7828 H   0  0  0  0  0  0  0  0  0  0  0  0
   -7.4107   -0.8590  -24.2464 H   0  0  0  0  0  0  0  0  0  0  0  0
   -8.8048   -1.5640  -25.1007 H   0  0  0  0  0  0  0  0  0  0  0  0
   -7.7437   -1.7769  -18.5736 H   0  0  0  0  0  0  0  0  0  0  0  0
   -4.4870    0.3334  -17.1698 H   0  0  0  0  0  0  0  0  0  0  0  0
   -3.1130    1.7192  -18.6631 H   0  0  0  0  0  0  0  0  0  0  0  0
   -2.5033    2.4481  -20.9513 H   0  0  0  0  0  0  0  0  0  0  0  0
   -3.7837    1.6110  -22.9075 H   0  0  0  0  0  0  0  0  0  0  0  0
   -5.7047    0.1236  -22.5913 H   0  0  0  0  0  0  0  0  0  0  0  0
   -6.9812   -3.3781  -21.1021 H   0  0  0  0  0  0  0  0  0  0  0  0
   -6.3636   -2.5071  -22.5142 H   0  0  0  0  0  0  0  0  0  0  0  0
   -9.2190   -3.2110  -21.7882 H   0  0  0  0  0  0  0  0  0  0  0  0
   -7.6501   -3.5661  -24.3754 H   0  0  0  0  0  0  0  0  0  0  0  0
   -9.3804   -3.8439  -24.2626 H   0  0  0  0  0  0  0  0  0  0  0  0
   -8.9381   -5.7205  -22.8248 H   0  0  0  0  0  0  0  0  0  0  0  0
   -5.5872   -4.2592  -24.0175 H   0  0  0  0  0  0  0  0  0  0  0  0
   -3.8521   -8.8352  -22.8215 H   0  0  0  0  0  0  0  0  0  0  0  0
   -4.2413   -8.4915  -21.1372 H   0  0  0  0  0  0  0  0  0  0  0  0
   -2.9859   -7.5437  -21.9801 H   0  0  0  0  0  0  0  0  0  0  0  0
  -11.1309   -3.2173  -22.1576 H   0  0  0  0  0  0  0  0  0  0  0  0
  -14.4263   -0.6189  -22.9552 H   0  0  0  0  0  0  0  0  0  0  0  0
  -12.8540    1.0456  -23.9930 H   0  0  0  0  0  0  0  0  0  0  0  0
  1  2  1  0
  2  3  1  0
  3  4  2  0
  3  5  1  0
  5  6  1  0
  6  7  1  0
  8  7  1  6
  8  9  1  0
  9 10  2  0
  9 11  1  0
 11 12  1  0
 12 13  2  0
 13 14  1  0
 14 15  2  0
 15 16  1  0
 16 17  2  0
 17 18  1  0
 18 19  2  0
 19 20  1  0
 20 21  2  0
 11 22  1  0
 22 23  1  0
 23 24  1  0
 24 25  1  0
 25 26  1  0
 26 27  2  0
 27 28  1  0
 28 29  2  0
 29 30  1  0
 29 31  1  0
  8 32  1  0
 32 33  2  0
 33 34  1  0
 34 35  1  0
 34 36  2  0
 36 37  1  0
 37 38  2  0
 38 39  1  0
 39 40  2  0
 39  6  1  0
 23  8  1  0
 31 26  1  0
 38 32  1  0
 21 12  1  0
 21 16  1  0
  1 41  1  0
  1 42  1  0
  1 43  1  0
  2 44  1  0
  5 45  1  0
  5 46  1  0
  7 47  1  0
  7 48  1  0
 13 49  1  0
 15 50  1  0
 17 51  1  0
 18 52  1  0
 19 53  1  0
 20 54  1  0
 22 55  1  0
 22 56  1  0
 23 57  1  1
 24 58  1  0
 24 59  1  0
 25 60  1  0
 27 61  1  0
 30 62  1  0
 30 63  1  0
 30 64  1  0
 33 65  1  0
 36 66  1  0
 37 67  1  0
M  END
$$$$

     RDKit          3D

 57 62  0  0  0  0  0  0  0  0999 V2000
   -8.4183   -3.8513  -23.7178 C   0  0  0  0  0  0  0  0  0  0  0  0
   -8.5025   -2.8256  -22.5979 C   0  0  1  0  0  0  0  0  0  0  0  0
   -7.2009   -2.5799  -21.8338 C   0  0  0  0  0  0  0  0  0  0  0  0
   -7.4867   -1.3274  -21.1592 N   0  0  0  0  0  0  0  0  0  0  0  0
   -6.6511   -0.8164  -20.1273 C   0  0  0  0  0  0  0  0  0  0  0  0
   -6.8571   -1.2000  -18.8237 C   0  0  0  0  0  0  0  0  0  0  0  0
   -6.0624   -0.8514  -17.7814 N   0  0  0  0  0  0  0  0  0  0  0  0
   -5.0313   -0.0845  -18.0319 C   0  0  0  0  0  0  0  0  0  0  0  0
   -4.7152    0.4123  -19.3275 C   0  0  0  0  0  0  0  0  0  0  0  0
   -3.6358    1.3105  -19.5318 C   0  0  0  0  0  0  0  0  0  0  0  0
   -3.3309    1.7502  -20.7900 C   0  0  0  0  0  0  0  0  0  0  0  0
   -4.0760    1.2950  -21.9005 C   0  0  0  0  0  0  0  0  0  0  0  0
   -5.1405    0.4456  -21.7254 C   0  0  0  0  0  0  0  0  0  0  0  0
   -5.5142    0.0087  -20.4216 C   0  0  0  0  0  0  0  0  0  0  0  0
   -8.4403   -0.5714  -21.8190 C   0  0  0  0  0  0  0  0  0  0  0  0
   -8.7368    0.5628  -21.5172 O   0  0  0  0  0  0  0  0  0  0  0  0
   -9.0208   -1.4229  -22.9870 C   0  0  1  0  0  0  0  0  0  0  0  0
   -8.4471   -0.8836  -24.3320 C   0  0  0  0  0  0  0  0  0  0  0  0
   -8.9104    0.4724  -24.5856 N   0  0  0  0  0  0  0  0  0  0  0  0
   -8.0710    1.4013  -25.3138 C   0  0  0  0  0  0  0  0  0  0  0  0
   -8.0466    1.2170  -26.8052 C   0  0  0  0  0  0  0  0  0  0  0  0
   -8.6066    2.0295  -27.6784 N   0  0  0  0  0  0  0  0  0  0  0  0
   -8.3410    1.5292  -28.8943 N   0  0  0  0  0  0  0  0  0  0  0  0
   -7.6252    0.4667  -28.8033 N   0  0  0  0  0  0  0  0  0  0  0  0
   -7.4109    0.2475  -27.4928 N   0  0  0  0  0  0  0  0  0  0  0  0
   -6.4636   -0.7689  -27.0785 C   0  0  0  0  0  0  0  0  0  0  0  0
  -10.1589    0.9075  -24.2275 C   0  0  0  0  0  0  0  0  0  0  0  0
  -10.5310    2.0619  -24.3989 O   0  0  0  0  0  0  0  0  0  0  0  0
  -11.0589   -0.1196  -23.6217 C   0  0  0  0  0  0  0  0  0  0  0  0
  -12.4261    0.1469  -23.6132 C   0  0  0  0  0  0  0  0  0  0  0  0
  -13.3137   -0.7951  -23.1382 C   0  0  0  0  0  0  0  0  0  0  0  0
  -12.7964   -2.0036  -22.6864 C   0  0  0  0  0  0  0  0  0  0  0  0
  -13.6548   -2.9254  -22.2148 F   0  0  0  0  0  0  0  0  0  0  0  0
  -11.4436   -2.2905  -22.6859 C   0  0  0  0  0  0  0  0  0  0  0  0
  -10.5340   -1.3089  -23.1037 C   0  0  0  0  0  0  0  0  0  0  0  0
   -8.1408   -4.8354  -23.3216 H   0  0  0  0  0  0  0  0  0  0  0  0
   -9.3881   -3.9352  -24.2233 H   0  0  0  0  0  0  0  0  0  0  0  0
   -7.6697   -3.5559  -24.4637 H   0  0  0  0  0  0  0  0  0  0  0  0
   -9.1953   -3.1851  -21.8296 H   0  0  0  0  0  0  0  0  0  0  0  0
   -6.3357   -2.5032  -22.5152 H   0  0  0  0  0  0  0  0  0  0  0  0
   -6.9900   -3.3673  -21.1048 H   0  0  0  0  0  0  0  0  0  0  0  0
   -7.6999   -1.8419  -18.5723 H   0  0  0  0  0  0  0  0  0  0  0  0
   -4.3880    0.1881  -17.1944 H   0  0  0  0  0  0  0  0  0  0  0  0
   -3.0821    1.6535  -18.6622 H   0  0  0  0  0  0  0  0  0  0  0  0
   -2.5201    2.4569  -20.9413 H   0  0  0  0  0  0  0  0  0  0  0  0
   -3.8084    1.6298  -22.8977 H   0  0  0  0  0  0  0  0  0  0  0  0
   -5.7140    0.1126  -22.5866 H   0  0  0  0  0  0  0  0  0  0  0  0
   -8.7774   -1.5351  -25.1563 H   0  0  0  0  0  0  0  0  0  0  0  0
   -7.3482   -0.8645  -24.3182 H   0  0  0  0  0  0  0  0  0  0  0  0
   -8.4917    2.3920  -25.1280 H   0  0  0  0  0  0  0  0  0  0  0  0
   -7.0437    1.3492  -24.9261 H   0  0  0  0  0  0  0  0  0  0  0  0
   -5.6538   -0.3218  -26.4949 H   0  0  0  0  0  0  0  0  0  0  0  0
   -6.0328   -1.1796  -27.9897 H   0  0  0  0  0  0  0  0  0  0  0  0
   -6.9549   -1.5688  -26.5139 H   0  0  0  0  0  0  0  0  0  0  0  0
  -12.7603    1.0993  -24.0109 H   0  0  0  0  0  0  0  0  0  0  0  0
  -14.3820   -0.6130  -23.1102 H   0  0  0  0  0  0  0  0  0  0  0  0
  -11.1287   -3.2685  -22.3440 H   0  0  0  0  0  0  0  0  0  0  0  0
  1  2  1  0
  2  3  1  0
  3  4  1  0
  4  5  1  0
  5  6  2  0
  6  7  1  0
  7  8  2  0
  8  9  1  0
  9 10  2  0
 10 11  1  0
 11 12  2  0
 12 13  1  0
 13 14  2  0
  4 15  1  0
 15 16  2  0
 15 17  1  0
 17 18  1  6
 18 19  1  0
 19 20  1  0
 20 21  1  0
 21 22  2  0
 22 23  1  0
 23 24  2  0
 24 25  1  0
 25 26  1  0
 19 27  1  0
 27 28  2  0
 27 29  1  0
 29 30  2  0
 30 31  1  0
 31 32  2  0
 32 33  1  0
 32 34  1  0
 34 35  2  0
 17  2  1  0
 25 21  1  0
 35 29  1  0
 14  5  1  0
 35 17  1  0
 14  9  1  0
  1 36  1  0
  1 37  1  0
  1 38  1  0
  2 39  1  1
  3 40  1  0
  3 41  1  0
  6 42  1  0
  8 43  1  0
 10 44  1  0
 11 45  1  0
 12 46  1  0
 13 47  1  0
 18 48  1  0
 18 49  1  0
 20 50  1  0
 20 51  1  0
 26 52  1  0
 26 53  1  0
 26 54  1  0
 30 55  1  0
 31 56  1  0
 34 57  1  0
M  END
$$$$

     RDKit          3D

 58 63  0  0  0  0  0  0  0  0999 V2000
   -8.3552    0.6243  -21.3054 O   0  0  0  0  0  0  0  0  0  0  0  0
   -8.1457   -0.4707  -21.7902 C   0  0  0  0  0  0  0  0  0  0  0  0
   -7.2609   -1.4938  -21.0540 C   0  0  0  0  0  0  0  0  0  0  0  0
   -6.4726   -0.8870  -19.9282 C   0  0  0  0  0  0  0  0  0  0  0  0
   -6.7355   -1.1663  -18.6131 C   0  0  0  0  0  0  0  0  0  0  0  0
   -6.0599   -0.6538  -17.5492 N   0  0  0  0  0  0  0  0  0  0  0  0
   -5.0750    0.1718  -17.8099 C   0  0  0  0  0  0  0  0  0  0  0  0
   -4.6921    0.5528  -19.1263 C   0  0  0  0  0  0  0  0  0  0  0  0
   -3.6328    1.4632  -19.3676 C   0  0  0  0  0  0  0  0  0  0  0  0
   -3.3280    1.8626  -20.6391 C   0  0  0  0  0  0  0  0  0  0  0  0
   -4.0315    1.3206  -21.7351 C   0  0  0  0  0  0  0  0  0  0  0  0
   -5.0390    0.4122  -21.5320 C   0  0  0  0  0  0  0  0  0  0  0  0
   -5.4101    0.0172  -20.2164 C   0  0  0  0  0  0  0  0  0  0  0  0
   -8.7581   -0.8587  -22.9751 N   0  0  0  0  0  0  0  0  0  0  0  0
   -9.8353   -0.0191  -23.5216 C   0  0  0  0  0  0  0  0  0  0  0  0
  -11.0785   -0.8319  -23.8456 C   0  0  0  0  0  0  0  0  0  0  0  0
  -11.6273   -0.9890  -25.1202 C   0  0  0  0  0  0  0  0  0  0  0  0
  -12.7718   -1.7514  -25.3153 C   0  0  0  0  0  0  0  0  0  0  0  0
  -13.4290   -2.3245  -24.2421 C   0  0  0  0  0  0  0  0  0  0  0  0
  -12.8663   -2.2002  -22.9827 C   0  0  0  0  0  0  0  0  0  0  0  0
  -13.6534   -2.9905  -21.6509 Cl  0  0  0  0  0  0  0  0  0  0  0  0
  -11.6743   -1.5161  -22.7933 C   0  0  0  0  0  0  0  0  0  0  0  0
   -8.1474   -1.8027  -23.8663 C   0  0  2  0  0  0  0  0  0  0  0  0
   -8.2227   -3.2970  -23.5211 C   0  0  0  0  0  0  0  0  0  0  0  0
   -7.4423   -3.8621  -24.6813 N   0  0  1  0  0  0  0  0  0  0  0  0
   -8.1348   -4.8907  -25.4606 C   0  0  0  0  0  0  0  0  0  0  0  0
   -7.9141   -6.3152  -25.0865 C   0  0  0  0  0  0  0  0  0  0  0  0
   -7.3056   -5.7553  -26.3456 C   0  0  0  0  0  0  0  0  0  0  0  0
   -7.1431   -2.5881  -25.4395 C   0  0  2  0  0  0  0  0  0  0  0  0
   -6.6665   -1.6846  -24.3006 C   0  0  0  0  0  0  0  0  0  0  0  0
   -8.4812   -1.8536  -25.3808 C   0  0  0  0  0  0  0  0  0  0  0  0
   -7.9235   -2.2808  -20.6672 H   0  0  0  0  0  0  0  0  0  0  0  0
   -6.5672   -1.9551  -21.7597 H   0  0  0  0  0  0  0  0  0  0  0  0
   -7.5469   -1.8454  -18.3527 H   0  0  0  0  0  0  0  0  0  0  0  0
   -4.5494    0.6106  -16.9604 H   0  0  0  0  0  0  0  0  0  0  0  0
   -3.0857    1.8504  -18.5144 H   0  0  0  0  0  0  0  0  0  0  0  0
   -2.5595    2.6092  -20.8121 H   0  0  0  0  0  0  0  0  0  0  0  0
   -3.7750    1.6265  -22.7448 H   0  0  0  0  0  0  0  0  0  0  0  0
   -5.5820    0.0171  -22.3843 H   0  0  0  0  0  0  0  0  0  0  0  0
   -9.4780    0.5247  -24.4040 H   0  0  0  0  0  0  0  0  0  0  0  0
  -10.0357    0.7318  -22.7543 H   0  0  0  0  0  0  0  0  0  0  0  0
  -11.1307   -0.6123  -26.0029 H   0  0  0  0  0  0  0  0  0  0  0  0
  -13.1030   -1.9605  -26.3219 H   0  0  0  0  0  0  0  0  0  0  0  0
  -14.3308   -2.9036  -24.3834 H   0  0  0  0  0  0  0  0  0  0  0  0
  -11.1453   -1.5472  -21.8593 H   0  0  0  0  0  0  0  0  0  0  0  0
   -9.2329   -3.6955  -23.5523 H   0  0  0  0  0  0  0  0  0  0  0  0
   -7.7387   -3.5629  -22.5834 H   0  0  0  0  0  0  0  0  0  0  0  0
   -6.5490   -4.2704  -24.3445 H   0  0  0  0  0  0  0  0  0  0  0  0
   -9.1199   -4.6152  -25.8118 H   0  0  0  0  0  0  0  0  0  0  0  0
   -7.2644   -6.4757  -24.2332 H   0  0  0  0  0  0  0  0  0  0  0  0
   -8.7444   -7.0049  -25.1730 H   0  0  0  0  0  0  0  0  0  0  0  0
   -6.2390   -5.5518  -26.3440 H   0  0  0  0  0  0  0  0  0  0  0  0
   -7.7185   -6.0570  -27.2998 H   0  0  0  0  0  0  0  0  0  0  0  0
   -6.5943   -2.7445  -26.3605 H   0  0  0  0  0  0  0  0  0  0  0  0
   -5.9263   -2.1580  -23.6462 H   0  0  0  0  0  0  0  0  0  0  0  0
   -6.3671   -0.6795  -24.6040 H   0  0  0  0  0  0  0  0  0  0  0  0
   -9.3807   -2.4185  -25.6495 H   0  0  0  0  0  0  0  0  0  0  0  0
   -8.4643   -0.8845  -25.8702 H   0  0  0  0  0  0  0  0  0  0  0  0
  1  2  2  0
  2  3  1  0
  3  4  1  0
  4  5  2  0
  5  6  1  0
  6  7  2  0
  7  8  1  0
  8  9  2  0
  9 10  1  0
 10 11  2  0
 11 12  1  0
 12 13  2  0
  2 14  1  0
 14 15  1  0
 15 16  1  0
 16 17  2  0
 17 18  1  0
 18 19  2  0
 19 20  1  0
 20 21  1  0
 20 22  2  0
 23 14  1  1
 23 24  1  0
 24 25  1  0
 25 26  1  0
 26 27  1  0
 27 28  1  0
 25 29  1  0
 29 30  1  0
 29 31  1  0
 13  4  1  0
 22 16  1  0
 30 23  1  0
 13  8  1  0
 31 23  1  0
 28 26  1  0
  3 32  1  0
  3 33  1  0
  5 34  1  0
  7 35  1  0
  9 36  1  0
 10 37  1  0
 11 38  1  0
 12 39  1  0
 15 40  1  0
 15 41  1  0
 17 42  1  0
 18 43  1  0
 19 44  1  0
 22 45  1  0
 24 46  1  0
 24 47  1  0
 25 48  1  1
 26 49  1  0
 27 50  1  0
 27 51  1  0
 28 52  1  0
 28 53  1  0
 29 54  1  6
 30 55  1  0
 30 56  1  0
 31 57  1  0
 31 58  1  0
M  CHG  1  25   1
M  END
$$$$

     RDKit          3D

 66 71  0  0  0  0  0  0  0  0999 V2000
   -7.0232    3.6222  -22.4634 C   0  0  0  0  0  0  0  0  0  0  0  0
   -7.7403    2.6360  -23.2375 N   0  0  0  0  0  0  0  0  0  0  0  0
   -7.4736    2.5141  -24.5532 C   0  0  0  0  0  0  0  0  0  0  0  0
   -6.7128    3.2526  -25.1626 O   0  0  0  0  0  0  0  0  0  0  0  0
   -8.1595    1.3743  -25.3238 C   0  0  0  0  0  0  0  0  0  0  0  0
   -8.9745    0.4591  -24.5566 N   0  0  0  0  0  0  0  0  0  0  0  0
   -8.4956   -0.8904  -24.2835 C   0  0  0  0  0  0  0  0  0  0  0  0
   -9.0705   -1.4333  -22.9407 C   0  0  2  0  0  0  0  0  0  0  0  0
   -8.4600   -0.5777  -21.7933 C   0  0  0  0  0  0  0  0  0  0  0  0
   -8.7286    0.5750  -21.5117 O   0  0  0  0  0  0  0  0  0  0  0  0
   -7.4896   -1.3169  -21.1629 N   0  0  0  0  0  0  0  0  0  0  0  0
   -6.6538   -0.7997  -20.1313 C   0  0  0  0  0  0  0  0  0  0  0  0
   -6.8725   -1.1714  -18.8270 C   0  0  0  0  0  0  0  0  0  0  0  0
   -6.0957   -0.8011  -17.7796 N   0  0  0  0  0  0  0  0  0  0  0  0
   -5.0658   -0.0306  -18.0277 C   0  0  0  0  0  0  0  0  0  0  0  0
   -4.7367    0.4531  -19.3246 C   0  0  0  0  0  0  0  0  0  0  0  0
   -3.6466    1.3390  -19.5316 C   0  0  0  0  0  0  0  0  0  0  0  0
   -3.3219    1.7552  -20.7915 C   0  0  0  0  0  0  0  0  0  0  0  0
   -4.0586    1.2911  -21.9042 C   0  0  0  0  0  0  0  0  0  0  0  0
   -5.1374    0.4577  -21.7294 C   0  0  0  0  0  0  0  0  0  0  0  0
   -5.5251    0.0339  -20.4256 C   0  0  0  0  0  0  0  0  0  0  0  0
   -7.2262   -2.5853  -21.8201 C   0  0  0  0  0  0  0  0  0  0  0  0
   -8.5507   -2.8394  -22.5415 C   0  0  2  0  0  0  0  0  0  0  0  0
   -8.5085   -3.8644  -23.6830 C   0  0  0  0  0  0  0  0  0  0  0  0
   -8.2529   -5.2216  -23.2476 N   0  0  0  0  0  0  0  0  0  0  0  0
   -6.9737   -5.6947  -23.1597 C   0  0  0  0  0  0  0  0  0  0  0  0
   -6.6877   -6.8963  -22.4703 C   0  0  0  0  0  0  0  0  0  0  0  0
   -5.4637   -7.3732  -22.3483 N   0  0  0  0  0  0  0  0  0  0  0  0
   -4.4798   -6.6723  -22.9412 C   0  0  0  0  0  0  0  0  0  0  0  0
   -4.7643   -5.5178  -23.6524 C   0  0  0  0  0  0  0  0  0  0  0  0
   -6.0003   -5.0121  -23.7569 N   0  0  0  0  0  0  0  0  0  0  0  0
  -10.5807   -1.3167  -23.0468 C   0  0  0  0  0  0  0  0  0  0  0  0
  -11.4741   -2.2984  -22.5948 C   0  0  0  0  0  0  0  0  0  0  0  0
  -12.8309   -2.0285  -22.5596 C   0  0  0  0  0  0  0  0  0  0  0  0
  -13.9085   -3.1901  -21.8359 Cl  0  0  0  0  0  0  0  0  0  0  0  0
  -13.3583   -0.8348  -23.0519 C   0  0  0  0  0  0  0  0  0  0  0  0
  -12.4915    0.1028  -23.5744 C   0  0  0  0  0  0  0  0  0  0  0  0
  -11.1208   -0.1460  -23.5974 C   0  0  0  0  0  0  0  0  0  0  0  0
  -10.2391    0.8749  -24.2428 C   0  0  0  0  0  0  0  0  0  0  0  0
  -10.6278    2.0106  -24.4737 O   0  0  0  0  0  0  0  0  0  0  0  0
   -7.1587    3.3883  -21.4033 H   0  0  0  0  0  0  0  0  0  0  0  0
   -5.9634    3.5718  -22.7275 H   0  0  0  0  0  0  0  0  0  0  0  0
   -7.3697    4.6440  -22.6586 H   0  0  0  0  0  0  0  0  0  0  0  0
   -8.2660    1.9306  -22.7299 H   0  0  0  0  0  0  0  0  0  0  0  0
   -8.7701    1.8367  -26.1095 H   0  0  0  0  0  0  0  0  0  0  0  0
   -7.3663    0.8099  -25.8267 H   0  0  0  0  0  0  0  0  0  0  0  0
   -7.4006   -0.8493  -24.2406 H   0  0  0  0  0  0  0  0  0  0  0  0
   -8.7814   -1.5552  -25.1110 H   0  0  0  0  0  0  0  0  0  0  0  0
   -7.7177   -1.8132  -18.5829 H   0  0  0  0  0  0  0  0  0  0  0  0
   -4.4394    0.2665  -17.1849 H   0  0  0  0  0  0  0  0  0  0  0  0
   -3.0937    1.6904  -18.6635 H   0  0  0  0  0  0  0  0  0  0  0  0
   -2.4982    2.4461  -20.9479 H   0  0  0  0  0  0  0  0  0  0  0  0
   -3.7864    1.6203  -22.9047 H   0  0  0  0  0  0  0  0  0  0  0  0
   -5.7008    0.1239  -22.5976 H   0  0  0  0  0  0  0  0  0  0  0  0
   -6.9917   -3.3512  -21.0807 H   0  0  0  0  0  0  0  0  0  0  0  0
   -6.3847   -2.5268  -22.5285 H   0  0  0  0  0  0  0  0  0  0  0  0
   -9.2217   -3.1861  -21.7457 H   0  0  0  0  0  0  0  0  0  0  0  0
   -9.4567   -3.8242  -24.2366 H   0  0  0  0  0  0  0  0  0  0  0  0
   -7.7033   -3.5963  -24.3760 H   0  0  0  0  0  0  0  0  0  0  0  0
   -8.9440   -5.6845  -22.6741 H   0  0  0  0  0  0  0  0  0  0  0  0
   -7.5019   -7.4611  -22.0270 H   0  0  0  0  0  0  0  0  0  0  0  0
   -3.4569   -7.0403  -22.8275 H   0  0  0  0  0  0  0  0  0  0  0  0
   -3.9838   -4.9557  -24.1640 H   0  0  0  0  0  0  0  0  0  0  0  0
  -11.1358   -3.2660  -22.2407 H   0  0  0  0  0  0  0  0  0  0  0  0
  -14.4261   -0.6497  -23.0115 H   0  0  0  0  0  0  0  0  0  0  0  0
  -12.8510    1.0403  -23.9859 H   0  0  0  0  0  0  0  0  0  0  0  0
  1  2  1  0
  2  3  1  0
  3  4  2  0
  3  5  1  0
  5  6  1  0
  6  7  1  0
  8  7  1  6
  8  9  1  0
  9 10  2  0
  9 11  1  0
 11 12  1  0
 12 13  2  0
 13 14  1  0
 14 15  2  0
 15 16  1  0
 16 17  2  0
 17 18  1  0
 18 19  2  0
 19 20  1  0
 20 21  2  0
 11 22  1  0
 22 23  1  0
 23 24  1  0
 24 25  1  0
 25 26  1  0
 26 27  2  0
 27 28  1  0
 28 29  2  0
 29 30  1  0
 30 31  2  0
  8 32  1  0
 32 33  2  0
 33 34  1  0
 34 35  1  0
 34 36  2  0
 36 37  1  0
 37 38  2  0
 38 39  1  0
 39 40  2  0
 39  6  1  0
 23  8  1  0
 31 26  1  0
 38 32  1  0
 21 12  1  0
 21 16  1  0
  1 41  1  0
  1 42  1  0
  1 43  1  0
  2 44  1  0
  5 45  1  0
  5 46  1  0
  7 47  1  0
  7 48  1  0
 13 49  1  0
 15 50  1  0
 17 51  1  0
 18 52  1  0
 19 53  1  0
 20 54  1  0
 22 55  1  0
 22 56  1  0
 23 57  1  1
 24 58  1  0
 24 59  1  0
 25 60  1  0
 27 61  1  0
 29 62  1  0
 30 63  1  0
 33 64  1  0
 36 65  1  0
 37 66  1  0
M  END
$$$$

     RDKit          3D

 68 73  0  0  0  0  0  0  0  0999 V2000
   -7.0184    3.6315  -22.4824 C   0  0  0  0  0  0  0  0  0  0  0  0
   -7.7824    2.6811  -23.2631 N   0  0  0  0  0  0  0  0  0  0  0  0
   -7.4951    2.5192  -24.5715 C   0  0  0  0  0  0  0  0  0  0  0  0
   -6.7272    3.2471  -25.1874 O   0  0  0  0  0  0  0  0  0  0  0  0
   -8.1622    1.3626  -25.3220 C   0  0  0  0  0  0  0  0  0  0  0  0
   -8.9839    0.4626  -24.5554 N   0  0  0  0  0  0  0  0  0  0  0  0
   -8.4966   -0.8803  -24.2972 C   0  0  0  0  0  0  0  0  0  0  0  0
   -9.0732   -1.4386  -22.9723 C   0  0  2  0  0  0  0  0  0  0  0  0
   -8.4816   -0.5987  -21.8051 C   0  0  0  0  0  0  0  0  0  0  0  0
   -8.7789    0.5496  -21.5290 O   0  0  0  0  0  0  0  0  0  0  0  0
   -7.5200   -1.3348  -21.1540 N   0  0  0  0  0  0  0  0  0  0  0  0
   -6.6685   -0.8068  -20.1344 C   0  0  0  0  0  0  0  0  0  0  0  0
   -6.8935   -1.1573  -18.8249 C   0  0  0  0  0  0  0  0  0  0  0  0
   -6.1238   -0.7720  -17.7752 N   0  0  0  0  0  0  0  0  0  0  0  0
   -5.0990    0.0043  -18.0239 C   0  0  0  0  0  0  0  0  0  0  0  0
   -4.7537    0.4642  -19.3260 C   0  0  0  0  0  0  0  0  0  0  0  0
   -3.6690    1.3580  -19.5332 C   0  0  0  0  0  0  0  0  0  0  0  0
   -3.3334    1.7564  -20.7947 C   0  0  0  0  0  0  0  0  0  0  0  0
   -4.0623    1.2826  -21.9076 C   0  0  0  0  0  0  0  0  0  0  0  0
   -5.1435    0.4524  -21.7305 C   0  0  0  0  0  0  0  0  0  0  0  0
   -5.5383    0.0340  -20.4275 C   0  0  0  0  0  0  0  0  0  0  0  0
   -7.2405   -2.5893  -21.8285 C   0  0  0  0  0  0  0  0  0  0  0  0
   -8.5324   -2.8480  -22.6127 C   0  0  2  0  0  0  0  0  0  0  0  0
   -8.3159   -3.8422  -23.7541 C   0  0  0  0  0  0  0  0  0  0  0  0
   -9.5309   -4.1351  -24.4677 N   0  0  0  0  0  0  0  0  0  0  0  0
   -9.5579   -4.9093  -25.6083 C   0  0  0  0  0  0  0  0  0  0  0  0
   -8.4025   -5.5343  -26.1056 C   0  0  0  0  0  0  0  0  0  0  0  0
   -8.4649   -6.3028  -27.2598 C   0  0  0  0  0  0  0  0  0  0  0  0
   -9.6604   -6.4745  -27.9450 C   0  0  0  0  0  0  0  0  0  0  0  0
  -10.8057   -5.8598  -27.4493 C   0  0  0  0  0  0  0  0  0  0  0  0
  -10.7679   -5.0884  -26.2993 C   0  0  0  0  0  0  0  0  0  0  0  0
  -10.5821   -1.3280  -23.0694 C   0  0  0  0  0  0  0  0  0  0  0  0
  -11.4750   -2.2743  -22.5531 C   0  0  0  0  0  0  0  0  0  0  0  0
  -12.8300   -1.9916  -22.4990 C   0  0  0  0  0  0  0  0  0  0  0  0
  -13.8797   -3.1209  -21.6886 Cl  0  0  0  0  0  0  0  0  0  0  0  0
  -13.3646   -0.8148  -23.0217 C   0  0  0  0  0  0  0  0  0  0  0  0
  -12.4988    0.0928  -23.5938 C   0  0  0  0  0  0  0  0  0  0  0  0
  -11.1311   -0.1662  -23.6297 C   0  0  0  0  0  0  0  0  0  0  0  0
  -10.2552    0.8662  -24.2576 C   0  0  0  0  0  0  0  0  0  0  0  0
  -10.6468    2.0050  -24.4760 O   0  0  0  0  0  0  0  0  0  0  0  0
   -7.3218    4.6721  -22.6505 H   0  0  0  0  0  0  0  0  0  0  0  0
   -5.9587    3.5532  -22.7455 H   0  0  0  0  0  0  0  0  0  0  0  0
   -7.1445    3.3870  -21.4216 H   0  0  0  0  0  0  0  0  0  0  0  0
   -8.3170    1.9865  -22.7480 H   0  0  0  0  0  0  0  0  0  0  0  0
   -8.7462    1.7986  -26.1372 H   0  0  0  0  0  0  0  0  0  0  0  0
   -7.3493    0.7938  -25.7815 H   0  0  0  0  0  0  0  0  0  0  0  0
   -8.7628   -1.5452  -25.1290 H   0  0  0  0  0  0  0  0  0  0  0  0
   -7.4032   -0.8425  -24.2265 H   0  0  0  0  0  0  0  0  0  0  0  0
   -7.7505   -1.7801  -18.5720 H   0  0  0  0  0  0  0  0  0  0  0  0
   -4.4936    0.3345  -17.1780 H   0  0  0  0  0  0  0  0  0  0  0  0
   -3.1191    1.7156  -18.6651 H   0  0  0  0  0  0  0  0  0  0  0  0
   -2.5076    2.4426  -20.9526 H   0  0  0  0  0  0  0  0  0  0  0  0
   -3.7878    1.6068  -22.9080 H   0  0  0  0  0  0  0  0  0  0  0  0
   -5.7072    0.1196  -22.5974 H   0  0  0  0  0  0  0  0  0  0  0  0
   -6.3750   -2.4986  -22.5092 H   0  0  0  0  0  0  0  0  0  0  0  0
   -7.0145   -3.3670  -21.0930 H   0  0  0  0  0  0  0  0  0  0  0  0
   -9.2382   -3.2878  -21.9012 H   0  0  0  0  0  0  0  0  0  0  0  0
   -7.5616   -3.4406  -24.4514 H   0  0  0  0  0  0  0  0  0  0  0  0
   -7.8882   -4.7790  -23.3593 H   0  0  0  0  0  0  0  0  0  0  0  0
  -10.4004   -3.7154  -24.1789 H   0  0  0  0  0  0  0  0  0  0  0  0
   -7.4555   -5.4187  -25.5838 H   0  0  0  0  0  0  0  0  0  0  0  0
   -7.5563   -6.7739  -27.6208 H   0  0  0  0  0  0  0  0  0  0  0  0
   -9.6977   -7.0796  -28.8446 H   0  0  0  0  0  0  0  0  0  0  0  0
  -11.7495   -5.9873  -27.9678 H   0  0  0  0  0  0  0  0  0  0  0  0
  -11.6797   -4.6196  -25.9310 H   0  0  0  0  0  0  0  0  0  0  0  0
  -11.1437   -3.2114  -22.1145 H   0  0  0  0  0  0  0  0  0  0  0  0
  -14.4295   -0.6225  -22.9498 H   0  0  0  0  0  0  0  0  0  0  0  0
  -12.8604    1.0336  -23.9935 H   0  0  0  0  0  0  0  0  0  0  0  0
  1  2  1  0
  2  3  1  0
  3  4  2  0
  3  5  1  0
  5  6  1  0
  6  7  1  0
  8  7  1  6
  8  9  1  0
  9 10  2  0
  9 11  1  0
 11 12  1  0
 12 13  2  0
 13 14  1  0
 14 15  2  0
 15 16  1  0
 16 17  2  0
 17 18  1  0
 18 19  2  0
 19 20  1  0
 20 21  2  0
 11 22  1  0
 22 23  1  0
 23 24  1  0
 24 25  1  0
 25 26  1  0
 26 27  2  0
 27 28  1  0
 28 29  2  0
 29 30  1  0
 30 31  2  0
  8 32  1  0
 32 33  2  0
 33 34  1  0
 34 35  1  0
 34 36  2  0
 36 37  1  0
 37 38  2  0
 38 39  1  0
 39 40  2  0
 39  6  1  0
 23  8  1  0
 31 26  1  0
 38 32  1  0
 21 12  1  0
 21 16  1  0
  1 41  1  0
  1 42  1  0
  1 43  1  0
  2 44  1  0
  5 45  1  0
  5 46  1  0
  7 47  1  0
  7 48  1  0
 13 49  1  0
 15 50  1  0
 17 51  1  0
 18 52  1  0
 19 53  1  0
 20 54  1  0
 22 55  1  0
 22 56  1  0
 23 57  1  1
 24 58  1  0
 24 59  1  0
 25 60  1  0
 27 61  1  0
 28 62  1  0
 29 63  1  0
 30 64  1  0
 31 65  1  0
 33 66  1  0
 36 67  1  0
 37 68  1  0
M  END
$$$$

     RDKit          3D

 57 62  0  0  0  0  0  0  0  0999 V2000
   -8.4193   -3.8270  -23.7071 C   0  0  0  0  0  0  0  0  0  0  0  0
   -8.5218   -2.8272  -22.5617 C   0  0  1  0  0  0  0  0  0  0  0  0
   -7.2078   -2.5775  -21.8067 C   0  0  0  0  0  0  0  0  0  0  0  0
   -7.4865   -1.3285  -21.1354 N   0  0  0  0  0  0  0  0  0  0  0  0
   -6.6388   -0.8173  -20.1171 C   0  0  0  0  0  0  0  0  0  0  0  0
   -6.8723   -1.1647  -18.8103 C   0  0  0  0  0  0  0  0  0  0  0  0
   -6.1064   -0.7739  -17.7630 N   0  0  0  0  0  0  0  0  0  0  0  0
   -5.0808    0.0037  -18.0103 C   0  0  0  0  0  0  0  0  0  0  0  0
   -4.7402    0.4645  -19.3149 C   0  0  0  0  0  0  0  0  0  0  0  0
   -3.6582    1.3578  -19.5303 C   0  0  0  0  0  0  0  0  0  0  0  0
   -3.3174    1.7544  -20.7930 C   0  0  0  0  0  0  0  0  0  0  0  0
   -4.0436    1.2665  -21.9001 C   0  0  0  0  0  0  0  0  0  0  0  0
   -5.1274    0.4398  -21.7165 C   0  0  0  0  0  0  0  0  0  0  0  0
   -5.5149    0.0220  -20.4138 C   0  0  0  0  0  0  0  0  0  0  0  0
   -8.4730   -0.5830  -21.7592 C   0  0  0  0  0  0  0  0  0  0  0  0
   -8.8049    0.5299  -21.4346 O   0  0  0  0  0  0  0  0  0  0  0  0
   -9.0562   -1.4175  -22.9330 C   0  0  1  0  0  0  0  0  0  0  0  0
   -8.4945   -0.8740  -24.2763 C   0  0  0  0  0  0  0  0  0  0  0  0
   -8.9745    0.4663  -24.5652 N   0  0  0  0  0  0  0  0  0  0  0  0
   -8.1458    1.4015  -25.2920 C   0  0  0  0  0  0  0  0  0  0  0  0
   -7.7388    2.6042  -24.4966 C   0  0  0  0  0  0  0  0  0  0  0  0
   -7.8621    3.7815  -25.1024 N   0  0  0  0  0  0  0  0  0  0  0  0
   -7.4688    4.8443  -24.4103 C   0  0  0  0  0  0  0  0  0  0  0  0
   -6.9544    4.7326  -23.1274 C   0  0  0  0  0  0  0  0  0  0  0  0
   -6.8565    3.4503  -22.6093 C   0  0  0  0  0  0  0  0  0  0  0  0
   -7.2304    2.3697  -23.2886 N   0  0  0  0  0  0  0  0  0  0  0  0
  -10.2298    0.8915  -24.2428 C   0  0  0  0  0  0  0  0  0  0  0  0
  -10.6156    2.0367  -24.4387 O   0  0  0  0  0  0  0  0  0  0  0  0
  -11.1090   -0.1418  -23.6211 C   0  0  0  0  0  0  0  0  0  0  0  0
  -12.4779    0.1231  -23.5992 C   0  0  0  0  0  0  0  0  0  0  0  0
  -13.3540   -0.7911  -23.0485 C   0  0  0  0  0  0  0  0  0  0  0  0
  -12.8221   -1.9701  -22.5358 C   0  0  0  0  0  0  0  0  0  0  0  0
  -13.6583   -2.8588  -21.9664 F   0  0  0  0  0  0  0  0  0  0  0  0
  -11.4697   -2.2610  -22.5595 C   0  0  0  0  0  0  0  0  0  0  0  0
  -10.5697   -1.3031  -23.0454 C   0  0  0  0  0  0  0  0  0  0  0  0
   -9.3769   -3.9163  -24.2320 H   0  0  0  0  0  0  0  0  0  0  0  0
   -7.6643   -3.5139  -24.4377 H   0  0  0  0  0  0  0  0  0  0  0  0
   -8.1318   -4.8256  -23.3608 H   0  0  0  0  0  0  0  0  0  0  0  0
   -9.2187   -3.2041  -21.8043 H   0  0  0  0  0  0  0  0  0  0  0  0
   -6.9558   -3.3547  -21.0769 H   0  0  0  0  0  0  0  0  0  0  0  0
   -6.3491   -2.4804  -22.4921 H   0  0  0  0  0  0  0  0  0  0  0  0
   -7.7469   -1.7633  -18.5559 H   0  0  0  0  0  0  0  0  0  0  0  0
   -4.4760    0.3293  -17.1610 H   0  0  0  0  0  0  0  0  0  0  0  0
   -3.1222    1.7278  -18.6635 H   0  0  0  0  0  0  0  0  0  0  0  0
   -2.5032    2.4570  -20.9475 H   0  0  0  0  0  0  0  0  0  0  0  0
   -3.7484    1.5625  -22.9024 H   0  0  0  0  0  0  0  0  0  0  0  0
   -5.7083    0.1237  -22.5784 H   0  0  0  0  0  0  0  0  0  0  0  0
   -7.3992   -0.8516  -24.2315 H   0  0  0  0  0  0  0  0  0  0  0  0
   -8.7988   -1.5611  -25.0762 H   0  0  0  0  0  0  0  0  0  0  0  0
   -7.2379    0.8761  -25.5924 H   0  0  0  0  0  0  0  0  0  0  0  0
   -8.6706    1.7652  -26.1739 H   0  0  0  0  0  0  0  0  0  0  0  0
   -7.5778    5.7957  -24.9235 H   0  0  0  0  0  0  0  0  0  0  0  0
   -6.6516    5.6023  -22.5622 H   0  0  0  0  0  0  0  0  0  0  0  0
   -6.4574    3.2576  -21.6158 H   0  0  0  0  0  0  0  0  0  0  0  0
  -12.8185    1.0767  -23.9919 H   0  0  0  0  0  0  0  0  0  0  0  0
  -14.4231   -0.6161  -22.9649 H   0  0  0  0  0  0  0  0  0  0  0  0
  -11.1527   -3.2191  -22.1589 H   0  0  0  0  0  0  0  0  0  0  0  0
  1  2  1  0
  2  3  1  0
  3  4  1  0
  4  5  1  0
  5  6  2  0
  6  7  1  0
  7  8  2  0
  8  9  1  0
  9 10  2  0
 10 11  1  0
 11 12  2  0
 12 13  1  0
 13 14  2  0
  4 15  1  0
 15 16  2  0
 15 17  1  0
 17 18  1  6
 18 19  1  0
 19 20  1  0
 20 21  1  0
 21 22  2  0
 22 23  1  0
 23 24  2  0
 24 25  1  0
 25 26  2  0
 19 27  1  0
 27 28  2  0
 27 29  1  0
 29 30  2  0
 30 31  1  0
 31 32  2  0
 32 33  1  0
 32 34  1  0
 34 35  2  0
 17  2  1  0
 26 21  1  0
 35 29  1  0
 14  5  1  0
 35 17  1  0
 14  9  1  0
  1 36  1  0
  1 37  1  0
  1 38  1  0
  2 39  1  1
  3 40  1  0
  3 41  1  0
  6 42  1  0
  8 43  1  0
 10 44  1  0
 11 45  1  0
 12 46  1  0
 13 47  1  0
 18 48  1  0
 18 49  1  0
 20 50  1  0
 20 51  1  0
 23 52  1  0
 24 53  1  0
 25 54  1  0
 30 55  1  0
 31 56  1  0
 34 57  1  0
M  END
$$$$

     RDKit          3D

 55 60  0  0  0  0  0  0  0  0999 V2000
   -8.4251   -3.8506  -23.6914 C   0  0  0  0  0  0  0  0  0  0  0  0
   -8.5216   -2.8478  -22.5534 C   0  0  1  0  0  0  0  0  0  0  0  0
   -7.2044   -2.5834  -21.8144 C   0  0  0  0  0  0  0  0  0  0  0  0
   -7.4920   -1.3380  -21.1321 N   0  0  0  0  0  0  0  0  0  0  0  0
   -6.6424   -0.8200  -20.1173 C   0  0  0  0  0  0  0  0  0  0  0  0
   -6.8577   -1.1885  -18.8104 C   0  0  0  0  0  0  0  0  0  0  0  0
   -6.0696   -0.8282  -17.7692 N   0  0  0  0  0  0  0  0  0  0  0  0
   -5.0400   -0.0602  -18.0259 C   0  0  0  0  0  0  0  0  0  0  0  0
   -4.7176    0.4239  -19.3247 C   0  0  0  0  0  0  0  0  0  0  0  0
   -3.6464    1.3341  -19.5272 C   0  0  0  0  0  0  0  0  0  0  0  0
   -3.3304    1.7539  -20.7877 C   0  0  0  0  0  0  0  0  0  0  0  0
   -4.0566    1.2773  -21.9019 C   0  0  0  0  0  0  0  0  0  0  0  0
   -5.1407    0.4481  -21.7251 C   0  0  0  0  0  0  0  0  0  0  0  0
   -5.5118    0.0111  -20.4213 C   0  0  0  0  0  0  0  0  0  0  0  0
   -8.4800   -0.5960  -21.7582 C   0  0  0  0  0  0  0  0  0  0  0  0
   -8.8073    0.5185  -21.4372 O   0  0  0  0  0  0  0  0  0  0  0  0
   -9.0576   -1.4420  -22.9305 C   0  0  1  0  0  0  0  0  0  0  0  0
   -8.4797   -0.9070  -24.2730 C   0  0  0  0  0  0  0  0  0  0  0  0
   -8.9457    0.4387  -24.5655 N   0  0  0  0  0  0  0  0  0  0  0  0
   -8.1346    1.3492  -25.3543 C   0  0  0  0  0  0  0  0  0  0  0  0
   -7.6403    2.5253  -24.5541 C   0  0  0  0  0  0  0  0  0  0  0  0
   -7.4896    3.8783  -24.8960 C   0  0  0  0  0  0  0  0  0  0  0  0
   -6.9623    4.5339  -23.8630 N   0  0  0  0  0  0  0  0  0  0  0  0
   -6.8086    3.5851  -22.9634 N   0  0  0  0  0  0  0  0  0  0  0  0
   -7.1843    2.3647  -23.3102 N   0  0  0  0  0  0  0  0  0  0  0  0
  -10.1878    0.8853  -24.2121 C   0  0  0  0  0  0  0  0  0  0  0  0
  -10.5410    2.0448  -24.3899 O   0  0  0  0  0  0  0  0  0  0  0  0
  -11.0930   -0.1411  -23.6033 C   0  0  0  0  0  0  0  0  0  0  0  0
  -12.4614    0.1284  -23.5893 C   0  0  0  0  0  0  0  0  0  0  0  0
  -13.3503   -0.8001  -23.0898 C   0  0  0  0  0  0  0  0  0  0  0  0
  -12.8289   -2.0017  -22.6257 C   0  0  0  0  0  0  0  0  0  0  0  0
  -13.6900   -2.9109  -22.1362 F   0  0  0  0  0  0  0  0  0  0  0  0
  -11.4788   -2.2991  -22.6252 C   0  0  0  0  0  0  0  0  0  0  0  0
  -10.5692   -1.3226  -23.0550 C   0  0  0  0  0  0  0  0  0  0  0  0
   -8.1366   -4.8446  -23.3368 H   0  0  0  0  0  0  0  0  0  0  0  0
   -9.3851   -3.9366  -24.2097 H   0  0  0  0  0  0  0  0  0  0  0  0
   -7.6785   -3.5315  -24.4252 H   0  0  0  0  0  0  0  0  0  0  0  0
   -9.1999   -3.2352  -21.7834 H   0  0  0  0  0  0  0  0  0  0  0  0
   -6.9631   -3.3577  -21.0818 H   0  0  0  0  0  0  0  0  0  0  0  0
   -6.3496   -2.4938  -22.5105 H   0  0  0  0  0  0  0  0  0  0  0  0
   -7.7147   -1.8140  -18.5622 H   0  0  0  0  0  0  0  0  0  0  0  0
   -4.3994    0.2303  -17.1923 H   0  0  0  0  0  0  0  0  0  0  0  0
   -3.0986    1.6890  -18.6565 H   0  0  0  0  0  0  0  0  0  0  0  0
   -2.5173    2.4565  -20.9407 H   0  0  0  0  0  0  0  0  0  0  0  0
   -3.7732    1.5926  -22.9040 H   0  0  0  0  0  0  0  0  0  0  0  0
   -5.7419    0.1717  -22.5874 H   0  0  0  0  0  0  0  0  0  0  0  0
   -7.3852   -0.8862  -24.2257 H   0  0  0  0  0  0  0  0  0  0  0  0
   -8.7759   -1.5921  -25.0785 H   0  0  0  0  0  0  0  0  0  0  0  0
   -8.7003    1.6938  -26.2265 H   0  0  0  0  0  0  0  0  0  0  0  0
   -7.2798    0.7830  -25.7405 H   0  0  0  0  0  0  0  0  0  0  0  0
   -7.7331    4.3963  -25.8154 H   0  0  0  0  0  0  0  0  0  0  0  0
   -6.4322    3.7850  -22.0470 H   0  0  0  0  0  0  0  0  0  0  0  0
  -12.8025    1.0825  -23.9726 H   0  0  0  0  0  0  0  0  0  0  0  0
  -14.4226   -0.6287  -23.0574 H   0  0  0  0  0  0  0  0  0  0  0  0
  -11.1762   -3.2857  -22.2824 H   0  0  0  0  0  0  0  0  0  0  0  0
  1  2  1  0
  2  3  1  0
  3  4  1  0
  4  5  1  0
  5  6  2  0
  6  7  1  0
  7  8  2  0
  8  9  1  0
  9 10  2  0
 10 11  1  0
 11 12  2  0
 12 13  1  0
 13 14  2  0
  4 15  1  0
 15 16  2  0
 15 17  1  0
 17 18  1  6
 18 19  1  0
 19 20  1  0
 20 21  1  0
 21 22  1  0
 22 23  2  0
 23 24  1  0
 24 25  1  0
 19 26  1  0
 26 27  2  0
 26 28  1  0
 28 29  2  0
 29 30  1  0
 30 31  2  0
 31 32  1  0
 31 33  1  0
 33 34  2  0
 17  2  1  0
 25 21  2  0
 34 28  1  0
 14  5  1  0
 34 17  1  0
 14  9  1  0
  1 35  1  0
  1 36  1  0
  1 37  1  0
  2 38  1  1
  3 39  1  0
  3 40  1  0
  6 41  1  0
  8 42  1  0
 10 43  1  0
 11 44  1  0
 12 45  1  0
 13 46  1  0
 18 47  1  0
 18 48  1  0
 20 49  1  0
 20 50  1  0
 22 51  1  0
 24 52  1  0
 29 53  1  0
 30 54  1  0
 33 55  1  0
M  END
$$$$

     RDKit          3D

 64 68  0  0  0  0  0  0  0  0999 V2000
   -7.0184    3.6115  -22.4546 C   0  0  0  0  0  0  0  0  0  0  0  0
   -7.7049    2.6071  -23.2337 N   0  0  0  0  0  0  0  0  0  0  0  0
   -7.4604    2.5308  -24.5551 C   0  0  0  0  0  0  0  0  0  0  0  0
   -6.6981    3.2876  -25.1500 O   0  0  0  0  0  0  0  0  0  0  0  0
   -8.1599    1.4194  -25.3425 C   0  0  0  0  0  0  0  0  0  0  0  0
   -8.9819    0.5094  -24.5780 N   0  0  0  0  0  0  0  0  0  0  0  0
   -8.4978   -0.8335  -24.3101 C   0  0  0  0  0  0  0  0  0  0  0  0
   -9.0530   -1.3819  -22.9655 C   0  0  2  0  0  0  0  0  0  0  0  0
   -8.4607   -0.5348  -21.8053 C   0  0  0  0  0  0  0  0  0  0  0  0
   -8.7428    0.6072  -21.5040 O   0  0  0  0  0  0  0  0  0  0  0  0
   -7.5032   -1.2782  -21.1596 N   0  0  0  0  0  0  0  0  0  0  0  0
   -6.6595   -0.7807  -20.1326 C   0  0  0  0  0  0  0  0  0  0  0  0
   -6.8666   -1.1817  -18.8365 C   0  0  0  0  0  0  0  0  0  0  0  0
   -6.0843   -0.8244  -17.7905 N   0  0  0  0  0  0  0  0  0  0  0  0
   -5.0549   -0.0516  -18.0321 C   0  0  0  0  0  0  0  0  0  0  0  0
   -4.7312    0.4447  -19.3272 C   0  0  0  0  0  0  0  0  0  0  0  0
   -3.6381    1.3235  -19.5370 C   0  0  0  0  0  0  0  0  0  0  0  0
   -3.3152    1.7469  -20.7943 C   0  0  0  0  0  0  0  0  0  0  0  0
   -4.0591    1.2913  -21.9046 C   0  0  0  0  0  0  0  0  0  0  0  0
   -5.1381    0.4583  -21.7315 C   0  0  0  0  0  0  0  0  0  0  0  0
   -5.5246    0.0400  -20.4260 C   0  0  0  0  0  0  0  0  0  0  0  0
   -7.2082   -2.5278  -21.8172 C   0  0  0  0  0  0  0  0  0  0  0  0
   -8.4871   -2.7721  -22.6146 C   0  0  2  0  0  0  0  0  0  0  0  0
   -8.2938   -3.7151  -23.7908 C   0  0  0  0  0  0  0  0  0  0  0  0
   -7.7329   -5.2769  -23.1617 S   0  0  0  0  0  0  0  0  0  0  0  0
   -8.5524   -5.6611  -22.0277 O   0  0  0  0  0  0  0  0  0  0  0  0
   -6.2866   -5.1943  -23.0012 O   0  0  0  0  0  0  0  0  0  0  0  0
   -8.1524   -6.2553  -24.4417 N   0  0  0  0  0  0  0  0  0  0  0  0
   -7.2547   -6.2481  -25.5911 C   0  0  0  0  0  0  0  0  0  0  0  0
  -10.5690   -1.2905  -23.0533 C   0  0  0  0  0  0  0  0  0  0  0  0
  -11.4662   -2.2839  -22.6214 C   0  0  0  0  0  0  0  0  0  0  0  0
  -12.8248   -2.0215  -22.6091 C   0  0  0  0  0  0  0  0  0  0  0  0
  -13.6641   -2.9564  -22.1197 F   0  0  0  0  0  0  0  0  0  0  0  0
  -13.3578   -0.8264  -23.0832 C   0  0  0  0  0  0  0  0  0  0  0  0
  -12.4857    0.1255  -23.5767 C   0  0  0  0  0  0  0  0  0  0  0  0
  -11.1117   -0.1128  -23.5900 C   0  0  0  0  0  0  0  0  0  0  0  0
  -10.2452    0.9163  -24.2502 C   0  0  0  0  0  0  0  0  0  0  0  0
  -10.6471    2.0491  -24.4826 O   0  0  0  0  0  0  0  0  0  0  0  0
   -7.4021    4.6185  -22.6615 H   0  0  0  0  0  0  0  0  0  0  0  0
   -5.9496    3.5972  -22.7020 H   0  0  0  0  0  0  0  0  0  0  0  0
   -7.1634    3.3846  -21.3935 H   0  0  0  0  0  0  0  0  0  0  0  0
   -8.2679    1.9184  -22.7401 H   0  0  0  0  0  0  0  0  0  0  0  0
   -8.7679    1.8958  -26.1173 H   0  0  0  0  0  0  0  0  0  0  0  0
   -7.3808    0.8471  -25.8597 H   0  0  0  0  0  0  0  0  0  0  0  0
   -8.7939   -1.4992  -25.1346 H   0  0  0  0  0  0  0  0  0  0  0  0
   -7.4008   -0.7983  -24.2723 H   0  0  0  0  0  0  0  0  0  0  0  0
   -7.7078   -1.8303  -18.5941 H   0  0  0  0  0  0  0  0  0  0  0  0
   -4.4233    0.2297  -17.1872 H   0  0  0  0  0  0  0  0  0  0  0  0
   -3.0876    1.6683  -18.6686 H   0  0  0  0  0  0  0  0  0  0  0  0
   -2.4962    2.4446  -20.9475 H   0  0  0  0  0  0  0  0  0  0  0  0
   -3.7923    1.6262  -22.9024 H   0  0  0  0  0  0  0  0  0  0  0  0
   -5.6999    0.1177  -22.5985 H   0  0  0  0  0  0  0  0  0  0  0  0
   -6.3251   -2.4478  -22.4683 H   0  0  0  0  0  0  0  0  0  0  0  0
   -7.0241   -3.3260  -21.0981 H   0  0  0  0  0  0  0  0  0  0  0  0
   -9.1776   -3.2277  -21.9001 H   0  0  0  0  0  0  0  0  0  0  0  0
   -9.2377   -3.8658  -24.3256 H   0  0  0  0  0  0  0  0  0  0  0  0
   -7.5173   -3.3564  -24.4817 H   0  0  0  0  0  0  0  0  0  0  0  0
   -8.4489   -7.1573  -24.0885 H   0  0  0  0  0  0  0  0  0  0  0  0
   -6.1962   -6.3041  -25.3043 H   0  0  0  0  0  0  0  0  0  0  0  0
   -7.5250   -7.0977  -26.2164 H   0  0  0  0  0  0  0  0  0  0  0  0
   -7.4272   -5.3434  -26.1844 H   0  0  0  0  0  0  0  0  0  0  0  0
  -11.1401   -3.2498  -22.2519 H   0  0  0  0  0  0  0  0  0  0  0  0
  -14.4304   -0.6608  -23.0441 H   0  0  0  0  0  0  0  0  0  0  0  0
  -12.8530    1.0613  -23.9881 H   0  0  0  0  0  0  0  0  0  0  0  0
  1  2  1  0
  2  3  1  0
  3  4  2  0
  3  5  1  0
  5  6  1  0
  6  7  1  0
  8  7  1  6
  8  9  1  0
  9 10  2  0
  9 11  1  0
 11 12  1  0
 12 13  2  0
 13 14  1  0
 14 15  2  0
 15 16  1  0
 16 17  2  0
 17 18  1  0
 18 19  2  0
 19 20  1  0
 20 21  2  0
 11 22  1  0
 22 23  1  0
 23 24  1  0
 24 25  1  0
 25 26  2  0
 25 27  2  0
 25 28  1  0
 28 29  1  0
  8 30  1  0
 30 31  2  0
 31 32  1  0
 32 33  1  0
 32 34  2  0
 34 35  1  0
 35 36  2  0
 36 37  1  0
 37 38  2  0
 37  6  1  0
 23  8  1  0
 36 30  1  0
 21 12  1  0
 21 16  1  0
  1 39  1  0
  1 40  1  0
  1 41  1  0
  2 42  1  0
  5 43  1  0
  5 44  1  0
  7 45  1  0
  7 46  1  0
 13 47  1  0
 15 48  1  0
 17 49  1  0
 18 50  1  0
 19 51  1  0
 20 52  1  0
 22 53  1  0
 22 54  1  0
 23 55  1  1
 24 56  1  0
 24 57  1  0
 28 58  1  0
 29 59  1  0
 29 60  1  0
 29 61  1  0
 31 62  1  0
 34 63  1  0
 35 64  1  0
M  END
$$$$

     RDKit          3D

 48 52  0  0  0  0  0  0  0  0999 V2000
    6.8099   -3.9534   23.8440 C   0  0  0  0  0  0  0  0  0  0  0  0
    6.8991   -2.8463   22.9221 N   0  0  0  0  0  0  0  0  0  0  0  0
    5.9748   -2.6142   21.9370 C   0  0  0  0  0  0  0  0  0  0  0  0
    4.9332   -3.1913   21.7351 O   0  0  0  0  0  0  0  0  0  0  0  0
    6.4600   -1.5248   21.1926 N   0  0  0  0  0  0  0  0  0  0  0  0
    5.7717   -0.9287   20.1009 C   0  0  0  0  0  0  0  0  0  0  0  0
    6.2145   -1.1360   18.8223 C   0  0  0  0  0  0  0  0  0  0  0  0
    5.6224   -0.6346   17.7111 N   0  0  0  0  0  0  0  0  0  0  0  0
    4.5648    0.1204   17.8870 C   0  0  0  0  0  0  0  0  0  0  0  0
    4.0059    0.4234   19.1593 C   0  0  0  0  0  0  0  0  0  0  0  0
    2.8720    1.2629   19.2935 C   0  0  0  0  0  0  0  0  0  0  0  0
    2.3700    1.5551   20.5293 C   0  0  0  0  0  0  0  0  0  0  0  0
    2.9747    1.0154   21.6869 C   0  0  0  0  0  0  0  0  0  0  0  0
    4.0726    0.1973   21.5828 C   0  0  0  0  0  0  0  0  0  0  0  0
    4.6180   -0.1162   20.3081 C   0  0  0  0  0  0  0  0  0  0  0  0
    7.6422   -1.0309   21.7272 C   0  0  0  0  0  0  0  0  0  0  0  0
    8.2093   -0.0244   21.3928 O   0  0  0  0  0  0  0  0  0  0  0  0
    8.0646   -2.0122   22.7950 C   0  0  0  0  0  0  0  0  0  0  0  0
    8.7185   -1.3890   24.0488 C   0  0  0  0  0  0  0  0  0  0  0  0
   10.0063   -2.0295   23.6762 N   0  0  0  0  0  0  0  0  0  0  0  0
   10.9611   -2.9570   24.6940 S   0  0  0  0  0  0  0  0  0  0  0  0
   11.8129   -3.7279   23.8094 O   0  0  0  0  0  0  0  0  0  0  0  0
   11.5168   -2.0590   25.6856 O   0  0  0  0  0  0  0  0  0  0  0  0
    9.8895   -4.1323   25.5206 C   0  0  0  0  0  0  0  0  0  0  0  0
    9.9185   -5.4438   25.0628 C   0  0  0  0  0  0  0  0  0  0  0  0
    9.1526   -6.4145   25.6947 C   0  0  0  0  0  0  0  0  0  0  0  0
    8.4013   -6.0967   26.8217 C   0  0  0  0  0  0  0  0  0  0  0  0
    8.3887   -4.7879   27.2885 C   0  0  0  0  0  0  0  0  0  0  0  0
    9.0943   -3.7986   26.6136 C   0  0  0  0  0  0  0  0  0  0  0  0
    9.4272   -2.6854   22.4930 C   0  0  0  0  0  0  0  0  0  0  0  0
    7.4895   -4.7657   23.5611 H   0  0  0  0  0  0  0  0  0  0  0  0
    5.7855   -4.3241   23.8340 H   0  0  0  0  0  0  0  0  0  0  0  0
    7.0613   -3.6128   24.8520 H   0  0  0  0  0  0  0  0  0  0  0  0
    7.0989   -1.7417   18.6568 H   0  0  0  0  0  0  0  0  0  0  0  0
    4.1020    0.5366   16.9926 H   0  0  0  0  0  0  0  0  0  0  0  0
    2.4291    1.6587   18.3887 H   0  0  0  0  0  0  0  0  0  0  0  0
    1.5079    2.2097   20.6297 H   0  0  0  0  0  0  0  0  0  0  0  0
    2.5685    1.2567   22.6652 H   0  0  0  0  0  0  0  0  0  0  0  0
    4.5418   -0.2036   22.4740 H   0  0  0  0  0  0  0  0  0  0  0  0
    8.3008   -1.7071   25.0057 H   0  0  0  0  0  0  0  0  0  0  0  0
    8.7948   -0.3006   24.0131 H   0  0  0  0  0  0  0  0  0  0  0  0
   10.5455   -5.6806   24.2116 H   0  0  0  0  0  0  0  0  0  0  0  0
    9.1518   -7.4307   25.3174 H   0  0  0  0  0  0  0  0  0  0  0  0
    7.8490   -6.8703   27.3445 H   0  0  0  0  0  0  0  0  0  0  0  0
    7.8158   -4.5313   28.1739 H   0  0  0  0  0  0  0  0  0  0  0  0
    8.9433   -2.7725   26.9088 H   0  0  0  0  0  0  0  0  0  0  0  0
    9.9028   -2.3570   21.5684 H   0  0  0  0  0  0  0  0  0  0  0  0
    9.4077   -3.7776   22.5456 H   0  0  0  0  0  0  0  0  0  0  0  0
  1  2  1  0
  2  3  1  0
  3  4  2  0
  3  5  1  0
  5  6  1  0
  6  7  2  0
  7  8  1  0
  8  9  2  0
  9 10  1  0
 10 11  2  0
 11 12  1  0
 12 13  2  0
 13 14  1  0
 14 15  2  0
  5 16  1  0
 16 17  2  0
 16 18  1  0
 18 19  1  0
 19 20  1  0
 20 21  1  0
 21 22  2  0
 21 23  2  0
 21 24  1  0
 24 25  2  0
 25 26  1  0
 26 27  2  0
 27 28  1  0
 28 29  2  0
 20 30  1  0
 18  2  1  0
 29 24  1  0
 15  6  1  0
 30 18  1  0
 15 10  1  0
  1 31  1  0
  1 32  1  0
  1 33  1  0
  7 34  1  0
  9 35  1  0
 11 36  1  0
 12 37  1  0
 13 38  1  0
 14 39  1  0
 19 40  1  0
 19 41  1  0
 25 42  1  0
 26 43  1  0
 27 44  1  0
 28 45  1  0
 29 46  1  0
 30 47  1  0
 30 48  1  0
M  END
$$$$

     RDKit          3D

 60 64  0  0  0  0  0  0  0  0999 V2000
   -7.0212    3.6296  -22.4835 C   0  0  0  0  0  0  0  0  0  0  0  0
   -7.7852    2.6763  -23.2617 N   0  0  0  0  0  0  0  0  0  0  0  0
   -7.4950    2.5179  -24.5719 C   0  0  0  0  0  0  0  0  0  0  0  0
   -6.7268    3.2444  -25.1894 O   0  0  0  0  0  0  0  0  0  0  0  0
   -8.1623    1.3608  -25.3237 C   0  0  0  0  0  0  0  0  0  0  0  0
   -8.9883    0.4613  -24.5592 N   0  0  0  0  0  0  0  0  0  0  0  0
   -8.5110   -0.8831  -24.2813 C   0  0  0  0  0  0  0  0  0  0  0  0
   -9.0682   -1.4178  -22.9378 C   0  0  2  0  0  0  0  0  0  0  0  0
   -8.4693   -0.5715  -21.7846 C   0  0  0  0  0  0  0  0  0  0  0  0
   -8.7600    0.5809  -21.5111 O   0  0  0  0  0  0  0  0  0  0  0  0
   -7.5089   -1.3086  -21.1364 N   0  0  0  0  0  0  0  0  0  0  0  0
   -6.6589   -0.7872  -20.1185 C   0  0  0  0  0  0  0  0  0  0  0  0
   -6.8838   -1.1482  -18.8129 C   0  0  0  0  0  0  0  0  0  0  0  0
   -6.1138   -0.7659  -17.7650 N   0  0  0  0  0  0  0  0  0  0  0  0
   -5.0875    0.0102  -18.0134 C   0  0  0  0  0  0  0  0  0  0  0  0
   -4.7427    0.4717  -19.3161 C   0  0  0  0  0  0  0  0  0  0  0  0
   -3.6586    1.3640  -19.5279 C   0  0  0  0  0  0  0  0  0  0  0  0
   -3.3266    1.7600  -20.7923 C   0  0  0  0  0  0  0  0  0  0  0  0
   -4.0563    1.2857  -21.9043 C   0  0  0  0  0  0  0  0  0  0  0  0
   -5.1383    0.4586  -21.7228 C   0  0  0  0  0  0  0  0  0  0  0  0
   -5.5286    0.0460  -20.4162 C   0  0  0  0  0  0  0  0  0  0  0  0
   -7.2255   -2.5638  -21.8066 C   0  0  0  0  0  0  0  0  0  0  0  0
   -8.5276   -2.8257  -22.5683 C   0  0  2  0  0  0  0  0  0  0  0  0
   -8.3709   -3.8226  -23.7145 C   0  0  0  0  0  0  0  0  0  0  0  0
   -9.5947   -4.0297  -24.3935 O   0  0  0  0  0  0  0  0  0  0  0  0
  -10.3078   -5.1667  -23.9691 C   0  0  0  0  0  0  0  0  0  0  0  0
  -10.5768   -1.3043  -23.0410 C   0  0  0  0  0  0  0  0  0  0  0  0
  -11.4649   -2.2623  -22.5444 C   0  0  0  0  0  0  0  0  0  0  0  0
  -12.8206   -1.9913  -22.5080 C   0  0  0  0  0  0  0  0  0  0  0  0
  -13.8691   -3.1378  -21.7131 Cl  0  0  0  0  0  0  0  0  0  0  0  0
  -13.3599   -0.8125  -23.0230 C   0  0  0  0  0  0  0  0  0  0  0  0
  -12.4963    0.1023  -23.5881 C   0  0  0  0  0  0  0  0  0  0  0  0
  -11.1273   -0.1495  -23.6154 C   0  0  0  0  0  0  0  0  0  0  0  0
  -10.2539    0.8743  -24.2552 C   0  0  0  0  0  0  0  0  0  0  0  0
  -10.6421    2.0171  -24.4796 O   0  0  0  0  0  0  0  0  0  0  0  0
   -5.9606    3.5532  -22.7464 H   0  0  0  0  0  0  0  0  0  0  0  0
   -7.3222    4.6727  -22.6494 H   0  0  0  0  0  0  0  0  0  0  0  0
   -7.1452    3.3855  -21.4232 H   0  0  0  0  0  0  0  0  0  0  0  0
   -8.3159    1.9823  -22.7424 H   0  0  0  0  0  0  0  0  0  0  0  0
   -7.3508    0.7915  -25.7829 H   0  0  0  0  0  0  0  0  0  0  0  0
   -8.7440    1.7989  -26.1393 H   0  0  0  0  0  0  0  0  0  0  0  0
   -8.8138   -1.5725  -25.0809 H   0  0  0  0  0  0  0  0  0  0  0  0
   -7.4165   -0.8574  -24.2380 H   0  0  0  0  0  0  0  0  0  0  0  0
   -7.7411   -1.7739  -18.5651 H   0  0  0  0  0  0  0  0  0  0  0  0
   -4.4819    0.3382  -17.1672 H   0  0  0  0  0  0  0  0  0  0  0  0
   -3.1064    1.7216  -18.6625 H   0  0  0  0  0  0  0  0  0  0  0  0
   -2.5016    2.4458  -20.9527 H   0  0  0  0  0  0  0  0  0  0  0  0
   -3.7848    1.6086  -22.9068 H   0  0  0  0  0  0  0  0  0  0  0  0
   -5.7054    0.1227  -22.5865 H   0  0  0  0  0  0  0  0  0  0  0  0
   -6.9923   -3.3304  -21.0633 H   0  0  0  0  0  0  0  0  0  0  0  0
   -6.3648   -2.4783  -22.4948 H   0  0  0  0  0  0  0  0  0  0  0  0
   -9.2282   -3.2358  -21.8350 H   0  0  0  0  0  0  0  0  0  0  0  0
   -7.6692   -3.4183  -24.4542 H   0  0  0  0  0  0  0  0  0  0  0  0
   -7.9487   -4.7792  -23.3566 H   0  0  0  0  0  0  0  0  0  0  0  0
  -11.2751   -5.1500  -24.4782 H   0  0  0  0  0  0  0  0  0  0  0  0
  -10.4876   -5.1782  -22.8816 H   0  0  0  0  0  0  0  0  0  0  0  0
   -9.7837   -6.0978  -24.2410 H   0  0  0  0  0  0  0  0  0  0  0  0
  -11.1249   -3.2061  -22.1344 H   0  0  0  0  0  0  0  0  0  0  0  0
  -14.4271   -0.6274  -22.9545 H   0  0  0  0  0  0  0  0  0  0  0  0
  -12.8607    1.0396  -23.9951 H   0  0  0  0  0  0  0  0  0  0  0  0
  1  2  1  0
  2  3  1  0
  3  4  2  0
  3  5  1  0
  5  6  1  0
  6  7  1  0
  8  7  1  6
  8  9  1  0
  9 10  2  0
  9 11  1  0
 11 12  1  0
 12 13  2  0
 13 14  1  0
 14 15  2  0
 15 16  1  0
 16 17  2  0
 17 18  1  0
 18 19  2  0
 19 20  1  0
 20 21  2  0
 11 22  1  0
 22 23  1  0
 23 24  1  0
 24 25  1  0
 25 26  1  0
  8 27  1  0
 27 28  2  0
 28 29  1  0
 29 30  1  0
 29 31  2  0
 31 32  1  0
 32 33  2  0
 33 34  1  0
 34 35  2  0
 34  6  1  0
 23  8  1  0
 33 27  1  0
 21 12  1  0
 21 16  1  0
  1 36  1  0
  1 37  1  0
  1 38  1  0
  2 39  1  0
  5 40  1  0
  5 41  1  0
  7 42  1  0
  7 43  1  0
 13 44  1  0
 15 45  1  0
 17 46  1  0
 18 47  1  0
 19 48  1  0
 20 49  1  0
 22 50  1  0
 22 51  1  0
 23 52  1  1
 24 53  1  0
 24 54  1  0
 26 55  1  0
 26 56  1  0
 26 57  1  0
 28 58  1  0
 31 59  1  0
 32 60  1  0
M  END
$$$$

     RDKit          3D

 63 68  0  0  0  0  0  0  0  0999 V2000
   -8.4255   -3.8250  -23.7046 C   0  0  0  0  0  0  0  0  0  0  0  0
   -8.5335   -2.8229  -22.5628 C   0  0  1  0  0  0  0  0  0  0  0  0
   -7.2239   -2.5582  -21.8133 C   0  0  0  0  0  0  0  0  0  0  0  0
   -7.5053   -1.3034  -21.1438 N   0  0  0  0  0  0  0  0  0  0  0  0
   -6.6619   -0.7887  -20.1169 C   0  0  0  0  0  0  0  0  0  0  0  0
   -6.8809   -1.1556  -18.8115 C   0  0  0  0  0  0  0  0  0  0  0  0
   -6.1096   -0.7748  -17.7644 N   0  0  0  0  0  0  0  0  0  0  0  0
   -5.0828    0.0002  -18.0146 C   0  0  0  0  0  0  0  0  0  0  0  0
   -4.7460    0.4690  -19.3163 C   0  0  0  0  0  0  0  0  0  0  0  0
   -3.6537    1.3528  -19.5289 C   0  0  0  0  0  0  0  0  0  0  0  0
   -3.3284    1.7594  -20.7921 C   0  0  0  0  0  0  0  0  0  0  0  0
   -4.0722    1.3001  -21.8998 C   0  0  0  0  0  0  0  0  0  0  0  0
   -5.1547    0.4726  -21.7181 C   0  0  0  0  0  0  0  0  0  0  0  0
   -5.5345    0.0450  -20.4135 C   0  0  0  0  0  0  0  0  0  0  0  0
   -8.4681   -0.5651  -21.7877 C   0  0  0  0  0  0  0  0  0  0  0  0
   -8.7543    0.5853  -21.5082 O   0  0  0  0  0  0  0  0  0  0  0  0
   -9.0713   -1.4166  -22.9379 C   0  0  1  0  0  0  0  0  0  0  0  0
   -8.5042   -0.8901  -24.2852 C   0  0  0  0  0  0  0  0  0  0  0  0
   -8.9883    0.4482  -24.5816 N   0  0  0  0  0  0  0  0  0  0  0  0
   -8.1664    1.3452  -25.3587 C   0  0  0  0  0  0  0  0  0  0  0  0
   -7.4982    2.4943  -24.5958 C   0  0  0  0  0  0  0  0  0  0  0  0
   -6.7369    3.2365  -25.2043 O   0  0  0  0  0  0  0  0  0  0  0  0
   -7.7718    2.6180  -23.2722 N   0  0  0  0  0  0  0  0  0  0  0  0
   -6.9734    3.5129  -22.4669 C   0  0  0  0  0  0  0  0  0  0  0  0
   -7.5037    4.9301  -22.3777 C   0  0  0  0  0  0  0  0  0  0  0  0
   -8.8336    4.9735  -22.0505 F   0  0  0  0  0  0  0  0  0  0  0  0
   -7.0635    6.0085  -23.3084 C   0  0  0  0  0  0  0  0  0  0  0  0
   -6.6028    5.9987  -21.8620 C   0  0  0  0  0  0  0  0  0  0  0  0
  -10.2428    0.8773  -24.2529 C   0  0  0  0  0  0  0  0  0  0  0  0
  -10.6164    2.0254  -24.4683 O   0  0  0  0  0  0  0  0  0  0  0  0
  -11.1240   -0.1355  -23.6030 C   0  0  0  0  0  0  0  0  0  0  0  0
  -12.4935    0.1229  -23.5796 C   0  0  0  0  0  0  0  0  0  0  0  0
  -13.3640   -0.7995  -23.0387 C   0  0  0  0  0  0  0  0  0  0  0  0
  -12.8300   -1.9807  -22.5381 C   0  0  0  0  0  0  0  0  0  0  0  0
  -13.6707   -2.8783  -21.9930 F   0  0  0  0  0  0  0  0  0  0  0  0
  -11.4780   -2.2646  -22.5578 C   0  0  0  0  0  0  0  0  0  0  0  0
  -10.5825   -1.2994  -23.0378 C   0  0  0  0  0  0  0  0  0  0  0  0
   -7.6698   -3.5087  -24.4352 H   0  0  0  0  0  0  0  0  0  0  0  0
   -8.1402   -4.8164  -23.3345 H   0  0  0  0  0  0  0  0  0  0  0  0
   -9.3853   -3.9151  -24.2275 H   0  0  0  0  0  0  0  0  0  0  0  0
   -9.2098   -3.2208  -21.7980 H   0  0  0  0  0  0  0  0  0  0  0  0
   -6.9916   -3.3325  -21.0772 H   0  0  0  0  0  0  0  0  0  0  0  0
   -6.3697   -2.4741  -22.5090 H   0  0  0  0  0  0  0  0  0  0  0  0
   -7.7310   -1.7917  -18.5668 H   0  0  0  0  0  0  0  0  0  0  0  0
   -4.4664    0.3134  -17.1715 H   0  0  0  0  0  0  0  0  0  0  0  0
   -3.0978    1.7052  -18.6657 H   0  0  0  0  0  0  0  0  0  0  0  0
   -2.5010    2.4438  -20.9513 H   0  0  0  0  0  0  0  0  0  0  0  0
   -3.7967    1.6200  -22.9011 H   0  0  0  0  0  0  0  0  0  0  0  0
   -5.7254    0.1447  -22.5827 H   0  0  0  0  0  0  0  0  0  0  0  0
   -7.4088   -0.8523  -24.2372 H   0  0  0  0  0  0  0  0  0  0  0  0
   -8.7910   -1.5753  -25.0957 H   0  0  0  0  0  0  0  0  0  0  0  0
   -7.3688    0.7684  -25.8403 H   0  0  0  0  0  0  0  0  0  0  0  0
   -8.7575    1.7902  -26.1638 H   0  0  0  0  0  0  0  0  0  0  0  0
   -8.3611    1.9545  -22.7661 H   0  0  0  0  0  0  0  0  0  0  0  0
   -6.8899    3.0870  -21.4581 H   0  0  0  0  0  0  0  0  0  0  0  0
   -5.9693    3.5724  -22.9093 H   0  0  0  0  0  0  0  0  0  0  0  0
   -6.4125    5.7467  -24.1377 H   0  0  0  0  0  0  0  0  0  0  0  0
   -7.8145    6.7489  -23.5756 H   0  0  0  0  0  0  0  0  0  0  0  0
   -5.5889    5.7036  -21.6201 H   0  0  0  0  0  0  0  0  0  0  0  0
   -6.9722    6.7567  -21.1802 H   0  0  0  0  0  0  0  0  0  0  0  0
  -12.8532    1.0569  -23.9971 H   0  0  0  0  0  0  0  0  0  0  0  0
  -14.4333   -0.6230  -22.9858 H   0  0  0  0  0  0  0  0  0  0  0  0
  -11.1560   -3.2230  -22.1649 H   0  0  0  0  0  0  0  0  0  0  0  0
  1  2  1  0
  2  3  1  0
  3  4  1  0
  4  5  1  0
  5  6  2  0
  6  7  1  0
  7  8  2  0
  8  9  1  0
  9 10  2  0
 10 11  1  0
 11 12  2  0
 12 13  1  0
 13 14  2  0
  4 15  1  0
 15 16  2  0
 15 17  1  0
 17 18  1  6
 18 19  1  0
 19 20  1  0
 20 21  1  0
 21 22  2  0
 21 23  1  0
 23 24  1  0
 24 25  1  0
 25 26  1  0
 25 27  1  0
 27 28  1  0
 19 29  1  0
 29 30  2  0
 29 31  1  0
 31 32  2  0
 32 33  1  0
 33 34  2  0
 34 35  1  0
 34 36  1  0
 36 37  2  0
 17  2  1  0
 28 25  1  0
 37 31  1  0
 14  5  1  0
 37 17  1  0
 14  9  1  0
  1 38  1  0
  1 39  1  0
  1 40  1  0
  2 41  1  1
  3 42  1  0
  3 43  1  0
  6 44  1  0
  8 45  1  0
 10 46  1  0
 11 47  1  0
 12 48  1  0
 13 49  1  0
 18 50  1  0
 18 51  1  0
 20 52  1  0
 20 53  1  0
 23 54  1  0
 24 55  1  0
 24 56  1  0
 27 57  1  0
 27 58  1  0
 28 59  1  0
 28 60  1  0
 32 61  1  0
 33 62  1  0
 36 63  1  0
M  END
$$$$

     RDKit          3D

 56 61  0  0  0  0  0  0  0  0999 V2000
   -8.4233   -3.8398  -23.7042 C   0  0  0  0  0  0  0  0  0  0  0  0
   -8.5219   -2.8451  -22.5579 C   0  0  1  0  0  0  0  0  0  0  0  0
   -7.2100   -2.5868  -21.8088 C   0  0  0  0  0  0  0  0  0  0  0  0
   -7.4909   -1.3363  -21.1338 N   0  0  0  0  0  0  0  0  0  0  0  0
   -6.6483   -0.8135  -20.1139 C   0  0  0  0  0  0  0  0  0  0  0  0
   -6.8702   -1.1695  -18.8070 C   0  0  0  0  0  0  0  0  0  0  0  0
   -6.0918   -0.7965  -17.7620 N   0  0  0  0  0  0  0  0  0  0  0  0
   -5.0644   -0.0252  -18.0155 C   0  0  0  0  0  0  0  0  0  0  0  0
   -4.7315    0.4448  -19.3192 C   0  0  0  0  0  0  0  0  0  0  0  0
   -3.6526    1.3429  -19.5259 C   0  0  0  0  0  0  0  0  0  0  0  0
   -3.3348    1.7597  -20.7901 C   0  0  0  0  0  0  0  0  0  0  0  0
   -4.0711    1.2905  -21.9020 C   0  0  0  0  0  0  0  0  0  0  0  0
   -5.1380    0.4473  -21.7201 C   0  0  0  0  0  0  0  0  0  0  0  0
   -5.5167    0.0178  -20.4140 C   0  0  0  0  0  0  0  0  0  0  0  0
   -8.4580   -0.5837  -21.7800 C   0  0  0  0  0  0  0  0  0  0  0  0
   -8.7595    0.5444  -21.4782 O   0  0  0  0  0  0  0  0  0  0  0  0
   -9.0454   -1.4384  -22.9392 C   0  0  1  0  0  0  0  0  0  0  0  0
   -8.4860   -0.9244  -24.2915 C   0  0  0  0  0  0  0  0  0  0  0  0
   -8.9099    0.4413  -24.5494 N   0  0  0  0  0  0  0  0  0  0  0  0
   -8.0373    1.3312  -25.2978 C   0  0  0  0  0  0  0  0  0  0  0  0
   -8.1040    1.1095  -26.7915 C   0  0  0  0  0  0  0  0  0  0  0  0
   -8.5184    1.9880  -27.8223 C   0  0  0  0  0  0  0  0  0  0  0  0
   -8.3593    1.2659  -28.9825 C   0  0  0  0  0  0  0  0  0  0  0  0
   -7.8740    0.0536  -28.6191 N   0  0  0  0  0  0  0  0  0  0  0  0
   -7.7023   -0.0607  -27.2935 N   0  0  0  0  0  0  0  0  0  0  0  0
  -10.1674    0.8861  -24.2472 C   0  0  0  0  0  0  0  0  0  0  0  0
  -10.5370    2.0341  -24.4653 O   0  0  0  0  0  0  0  0  0  0  0  0
  -11.0773   -0.1320  -23.6270 C   0  0  0  0  0  0  0  0  0  0  0  0
  -12.4455    0.1385  -23.6106 C   0  0  0  0  0  0  0  0  0  0  0  0
  -13.3276   -0.7786  -23.0758 C   0  0  0  0  0  0  0  0  0  0  0  0
  -12.8048   -1.9691  -22.5832 C   0  0  0  0  0  0  0  0  0  0  0  0
  -13.6542   -2.8636  -22.0506 F   0  0  0  0  0  0  0  0  0  0  0  0
  -11.4564   -2.2667  -22.5961 C   0  0  0  0  0  0  0  0  0  0  0  0
  -10.5543   -1.3060  -23.0654 C   0  0  0  0  0  0  0  0  0  0  0  0
   -7.6790   -3.5078  -24.4384 H   0  0  0  0  0  0  0  0  0  0  0  0
   -8.1301   -4.8347  -23.3537 H   0  0  0  0  0  0  0  0  0  0  0  0
   -9.3862   -3.9229  -24.2203 H   0  0  0  0  0  0  0  0  0  0  0  0
   -9.2105   -3.2280  -21.7945 H   0  0  0  0  0  0  0  0  0  0  0  0
   -6.3547   -2.4992  -22.5049 H   0  0  0  0  0  0  0  0  0  0  0  0
   -6.9715   -3.3639  -21.0769 H   0  0  0  0  0  0  0  0  0  0  0  0
   -7.7307   -1.7905  -18.5571 H   0  0  0  0  0  0  0  0  0  0  0  0
   -4.4450    0.2869  -17.1756 H   0  0  0  0  0  0  0  0  0  0  0  0
   -3.1017    1.6977  -18.6599 H   0  0  0  0  0  0  0  0  0  0  0  0
   -2.5167    2.4541  -20.9459 H   0  0  0  0  0  0  0  0  0  0  0  0
   -3.7944    1.6115  -22.9020 H   0  0  0  0  0  0  0  0  0  0  0  0
   -5.7129    0.1136  -22.5809 H   0  0  0  0  0  0  0  0  0  0  0  0
   -8.8333   -1.5860  -25.0983 H   0  0  0  0  0  0  0  0  0  0  0  0
   -7.3920   -0.9619  -24.3024 H   0  0  0  0  0  0  0  0  0  0  0  0
   -7.0119    1.1659  -24.9330 H   0  0  0  0  0  0  0  0  0  0  0  0
   -8.3322    2.3518  -25.0336 H   0  0  0  0  0  0  0  0  0  0  0  0
   -8.8908    3.0029  -27.7420 H   0  0  0  0  0  0  0  0  0  0  0  0
   -8.5150    1.5415  -30.0127 H   0  0  0  0  0  0  0  0  0  0  0  0
   -7.6828   -0.7556  -29.1869 H   0  0  0  0  0  0  0  0  0  0  0  0
  -12.7919    1.0851  -24.0089 H   0  0  0  0  0  0  0  0  0  0  0  0
  -14.3979   -0.5997  -23.0212 H   0  0  0  0  0  0  0  0  0  0  0  0
  -11.1412   -3.2343  -22.2161 H   0  0  0  0  0  0  0  0  0  0  0  0
  1  2  1  0
  2  3  1  0
  3  4  1  0
  4  5  1  0
  5  6  2  0
  6  7  1  0
  7  8  2  0
  8  9  1  0
  9 10  2  0
 10 11  1  0
 11 12  2  0
 12 13  1  0
 13 14  2  0
  4 15  1  0
 15 16  2  0
 15 17  1  0
 17 18  1  6
 18 19  1  0
 19 20  1  0
 20 21  1  0
 21 22  1  0
 22 23  2  0
 23 24  1  0
 24 25  1  0
 19 26  1  0
 26 27  2  0
 26 28  1  0
 28 29  2  0
 29 30  1  0
 30 31  2  0
 31 32  1  0
 31 33  1  0
 33 34  2  0
 17  2  1  0
 25 21  2  0
 34 28  1  0
 14  5  1  0
 34 17  1  0
 14  9  1  0
  1 35  1  0
  1 36  1  0
  1 37  1  0
  2 38  1  1
  3 39  1  0
  3 40  1  0
  6 41  1  0
  8 42  1  0
 10 43  1  0
 11 44  1  0
 12 45  1  0
 13 46  1  0
 18 47  1  0
 18 48  1  0
 20 49  1  0
 20 50  1  0
 22 51  1  0
 23 52  1  0
 24 53  1  0
 29 54  1  0
 30 55  1  0
 33 56  1  0
M  END
$$$$

     RDKit          3D

 68 73  0  0  0  0  0  0  0  0999 V2000
   -7.0118    3.6305  -22.4887 C   0  0  0  0  0  0  0  0  0  0  0  0
   -7.7903    2.6902  -23.2688 N   0  0  0  0  0  0  0  0  0  0  0  0
   -7.5025    2.5219  -24.5769 C   0  0  0  0  0  0  0  0  0  0  0  0
   -6.7346    3.2428  -25.2002 O   0  0  0  0  0  0  0  0  0  0  0  0
   -8.1557    1.3527  -25.3193 C   0  0  0  0  0  0  0  0  0  0  0  0
   -8.9841    0.4587  -24.5510 N   0  0  0  0  0  0  0  0  0  0  0  0
   -8.5097   -0.8896  -24.2791 C   0  0  0  0  0  0  0  0  0  0  0  0
   -9.0689   -1.4273  -22.9354 C   0  0  2  0  0  0  0  0  0  0  0  0
   -8.4686   -0.5784  -21.7892 C   0  0  0  0  0  0  0  0  0  0  0  0
   -8.7777    0.5659  -21.5092 O   0  0  0  0  0  0  0  0  0  0  0  0
   -7.4949   -1.3117  -21.1515 N   0  0  0  0  0  0  0  0  0  0  0  0
   -6.6539   -0.7972  -20.1261 C   0  0  0  0  0  0  0  0  0  0  0  0
   -6.8863   -1.1487  -18.8192 C   0  0  0  0  0  0  0  0  0  0  0  0
   -6.1276   -0.7514  -17.7675 N   0  0  0  0  0  0  0  0  0  0  0  0
   -5.1032    0.0289  -18.0110 C   0  0  0  0  0  0  0  0  0  0  0  0
   -4.7540    0.4834  -19.3155 C   0  0  0  0  0  0  0  0  0  0  0  0
   -3.6654    1.3687  -19.5311 C   0  0  0  0  0  0  0  0  0  0  0  0
   -3.3264    1.7610  -20.7943 C   0  0  0  0  0  0  0  0  0  0  0  0
   -4.0595    1.2864  -21.9030 C   0  0  0  0  0  0  0  0  0  0  0  0
   -5.1400    0.4588  -21.7222 C   0  0  0  0  0  0  0  0  0  0  0  0
   -5.5298    0.0446  -20.4165 C   0  0  0  0  0  0  0  0  0  0  0  0
   -7.2243   -2.5782  -21.8022 C   0  0  0  0  0  0  0  0  0  0  0  0
   -8.5385   -2.8341  -22.5436 C   0  0  2  0  0  0  0  0  0  0  0  0
   -8.4572   -3.8424  -23.6955 C   0  0  0  0  0  0  0  0  0  0  0  0
   -8.1911   -5.2151  -23.3301 N   0  0  0  0  0  0  0  0  0  0  0  0
   -6.9079   -5.7151  -23.1298 C   0  0  0  0  0  0  0  0  0  0  0  0
   -5.6491   -5.2154  -23.5518 C   0  0  0  0  0  0  0  0  0  0  0  0
   -4.6660   -6.0547  -23.2358 N   0  0  0  0  0  0  0  0  0  0  0  0
   -5.2572   -7.0683  -22.6082 N   0  0  0  0  0  0  0  0  0  0  0  0
   -4.4685   -8.1911  -22.1737 C   0  0  0  0  0  0  0  0  0  0  0  0
   -6.6009   -6.9199  -22.5241 C   0  0  0  0  0  0  0  0  0  0  0  0
  -10.5778   -1.3034  -23.0376 C   0  0  0  0  0  0  0  0  0  0  0  0
  -11.4695   -2.2538  -22.5333 C   0  0  0  0  0  0  0  0  0  0  0  0
  -12.8239   -1.9761  -22.4824 C   0  0  0  0  0  0  0  0  0  0  0  0
  -13.8660   -3.1057  -21.6601 Cl  0  0  0  0  0  0  0  0  0  0  0  0
  -13.3604   -0.8018  -23.0091 C   0  0  0  0  0  0  0  0  0  0  0  0
  -12.4966    0.1068  -23.5864 C   0  0  0  0  0  0  0  0  0  0  0  0
  -11.1275   -0.1497  -23.6152 C   0  0  0  0  0  0  0  0  0  0  0  0
  -10.2539    0.8742  -24.2598 C   0  0  0  0  0  0  0  0  0  0  0  0
  -10.6451    2.0118  -24.4862 O   0  0  0  0  0  0  0  0  0  0  0  0
   -5.9476    3.5506  -22.7445 H   0  0  0  0  0  0  0  0  0  0  0  0
   -7.3137    4.6729  -22.6503 H   0  0  0  0  0  0  0  0  0  0  0  0
   -7.1407    3.3846  -21.4299 H   0  0  0  0  0  0  0  0  0  0  0  0
   -8.3515    2.0118  -22.7567 H   0  0  0  0  0  0  0  0  0  0  0  0
   -8.7354    1.7792  -26.1409 H   0  0  0  0  0  0  0  0  0  0  0  0
   -7.3392    0.7805  -25.7714 H   0  0  0  0  0  0  0  0  0  0  0  0
   -8.8124   -1.5635  -25.0923 H   0  0  0  0  0  0  0  0  0  0  0  0
   -7.4141   -0.8664  -24.2397 H   0  0  0  0  0  0  0  0  0  0  0  0
   -7.7484   -1.7669  -18.5692 H   0  0  0  0  0  0  0  0  0  0  0  0
   -4.5084    0.3673  -17.1601 H   0  0  0  0  0  0  0  0  0  0  0  0
   -3.1168    1.7317  -18.6681 H   0  0  0  0  0  0  0  0  0  0  0  0
   -2.5011    2.4481  -20.9551 H   0  0  0  0  0  0  0  0  0  0  0  0
   -3.7851    1.6060  -22.9039 H   0  0  0  0  0  0  0  0  0  0  0  0
   -5.7048    0.1193  -22.5857 H   0  0  0  0  0  0  0  0  0  0  0  0
   -6.3731   -2.4982  -22.4997 H   0  0  0  0  0  0  0  0  0  0  0  0
   -6.9796   -3.3441  -21.0612 H   0  0  0  0  0  0  0  0  0  0  0  0
   -9.2215   -3.2171  -21.7780 H   0  0  0  0  0  0  0  0  0  0  0  0
   -7.6712   -3.5357  -24.3905 H   0  0  0  0  0  0  0  0  0  0  0  0
   -9.3981   -3.8043  -24.2597 H   0  0  0  0  0  0  0  0  0  0  0  0
   -8.8906   -5.6678  -22.7583 H   0  0  0  0  0  0  0  0  0  0  0  0
   -5.3977   -4.2900  -24.0579 H   0  0  0  0  0  0  0  0  0  0  0  0
   -4.8622   -8.5792  -21.2338 H   0  0  0  0  0  0  0  0  0  0  0  0
   -3.4511   -7.8295  -22.0290 H   0  0  0  0  0  0  0  0  0  0  0  0
   -4.4663   -8.9910  -22.9193 H   0  0  0  0  0  0  0  0  0  0  0  0
   -7.2233   -7.6516  -22.0259 H   0  0  0  0  0  0  0  0  0  0  0  0
  -11.1339   -3.1954  -22.1145 H   0  0  0  0  0  0  0  0  0  0  0  0
  -14.4260   -0.6070  -22.9294 H   0  0  0  0  0  0  0  0  0  0  0  0
  -12.8618    1.0429  -23.9962 H   0  0  0  0  0  0  0  0  0  0  0  0
  1  2  1  0
  2  3  1  0
  3  4  2  0
  3  5  1  0
  5  6  1  0
  6  7  1  0
  8  7  1  6
  8  9  1  0
  9 10  2  0
  9 11  1  0
 11 12  1  0
 12 13  2  0
 13 14  1  0
 14 15  2  0
 15 16  1  0
 16 17  2  0
 17 18  1  0
 18 19  2  0
 19 20  1  0
 20 21  2  0
 11 22  1  0
 22 23  1  0
 23 24  1  0
 24 25  1  0
 25 26  1  0
 26 27  1  0
 27 28  2  0
 28 29  1  0
 29 30  1  0
 29 31  1  0
  8 32  1  0
 32 33  2  0
 33 34  1  0
 34 35  1  0
 34 36  2  0
 36 37  1  0
 37 38  2  0
 38 39  1  0
 39 40  2  0
 39  6  1  0
 23  8  1  0
 31 26  2  0
 38 32  1  0
 21 12  1  0
 21 16  1  0
  1 41  1  0
  1 42  1  0
  1 43  1  0
  2 44  1  0
  5 45  1  0
  5 46  1  0
  7 47  1  0
  7 48  1  0
 13 49  1  0
 15 50  1  0
 17 51  1  0
 18 52  1  0
 19 53  1  0
 20 54  1  0
 22 55  1  0
 22 56  1  0
 23 57  1  1
 24 58  1  0
 24 59  1  0
 25 60  1  0
 27 61  1  0
 30 62  1  0
 30 63  1  0
 30 64  1  0
 31 65  1  0
 33 66  1  0
 36 67  1  0
 37 68  1  0
M  END
$$$$

     RDKit          3D

 57 62  0  0  0  0  0  0  0  0999 V2000
   -7.0015    3.6322  -22.4884 C   0  0  0  0  0  0  0  0  0  0  0  0
   -7.7818    2.6962  -23.2752 N   0  0  0  0  0  0  0  0  0  0  0  0
   -7.5069    2.5372  -24.5835 C   0  0  0  0  0  0  0  0  0  0  0  0
   -6.7418    3.2598  -25.2081 O   0  0  0  0  0  0  0  0  0  0  0  0
   -8.1639    1.3690  -25.3261 C   0  0  0  0  0  0  0  0  0  0  0  0
   -9.0010    0.4844  -24.5540 N   0  0  0  0  0  0  0  0  0  0  0  0
   -8.5213   -0.8570  -24.2937 C   0  0  0  0  0  0  0  0  0  0  0  0
   -9.0718   -1.4599  -22.9689 C   0  0  2  0  0  0  0  0  0  0  0  0
   -8.4945   -0.6241  -21.7976 C   0  0  0  0  0  0  0  0  0  0  0  0
   -8.8231    0.5131  -21.5151 O   0  0  0  0  0  0  0  0  0  0  0  0
   -7.5075   -1.3401  -21.1592 N   0  0  0  0  0  0  0  0  0  0  0  0
   -6.6671   -0.8122  -20.1277 C   0  0  0  0  0  0  0  0  0  0  0  0
   -6.9026   -1.1453  -18.8158 C   0  0  0  0  0  0  0  0  0  0  0  0
   -6.1481   -0.7327  -17.7639 N   0  0  0  0  0  0  0  0  0  0  0  0
   -5.1231    0.0429  -18.0114 C   0  0  0  0  0  0  0  0  0  0  0  0
   -4.7696    0.4868  -19.3182 C   0  0  0  0  0  0  0  0  0  0  0  0
   -3.6776    1.3687  -19.5345 C   0  0  0  0  0  0  0  0  0  0  0  0
   -3.3349    1.7569  -20.7964 C   0  0  0  0  0  0  0  0  0  0  0  0
   -4.0709    1.2791  -21.9015 C   0  0  0  0  0  0  0  0  0  0  0  0
   -5.1506    0.4492  -21.7220 C   0  0  0  0  0  0  0  0  0  0  0  0
   -5.5429    0.0349  -20.4181 C   0  0  0  0  0  0  0  0  0  0  0  0
   -7.2367   -2.6139  -21.7833 C   0  0  0  0  0  0  0  0  0  0  0  0
   -8.4341   -2.8420  -22.7101 C   0  0  0  0  0  0  0  0  0  0  0  0
   -9.0961   -4.1829  -22.6400 C   0  0  0  0  0  0  0  0  0  0  0  0
   -8.2514   -3.8444  -23.8283 C   0  0  0  0  0  0  0  0  0  0  0  0
  -10.5858   -1.3140  -23.0607 C   0  0  0  0  0  0  0  0  0  0  0  0
  -11.4801   -2.2058  -22.4775 C   0  0  0  0  0  0  0  0  0  0  0  0
  -12.8350   -1.9396  -22.4457 C   0  0  0  0  0  0  0  0  0  0  0  0
  -13.8522   -3.0670  -21.5896 Cl  0  0  0  0  0  0  0  0  0  0  0  0
  -13.3785   -0.7849  -23.0049 C   0  0  0  0  0  0  0  0  0  0  0  0
  -12.5112    0.1111  -23.5944 C   0  0  0  0  0  0  0  0  0  0  0  0
  -11.1436   -0.1553  -23.6365 C   0  0  0  0  0  0  0  0  0  0  0  0
  -10.2787    0.8795  -24.2766 C   0  0  0  0  0  0  0  0  0  0  0  0
  -10.6809    2.0150  -24.5047 O   0  0  0  0  0  0  0  0  0  0  0  0
   -7.3005    4.6730  -22.6600 H   0  0  0  0  0  0  0  0  0  0  0  0
   -5.9347    3.5442  -22.7334 H   0  0  0  0  0  0  0  0  0  0  0  0
   -7.1414    3.3901  -21.4308 H   0  0  0  0  0  0  0  0  0  0  0  0
   -8.3905    2.0518  -22.7736 H   0  0  0  0  0  0  0  0  0  0  0  0
   -8.7279    1.7896  -26.1592 H   0  0  0  0  0  0  0  0  0  0  0  0
   -7.3458    0.7862  -25.7641 H   0  0  0  0  0  0  0  0  0  0  0  0
   -7.4314   -0.8380  -24.2202 H   0  0  0  0  0  0  0  0  0  0  0  0
   -8.8007   -1.5280  -25.1127 H   0  0  0  0  0  0  0  0  0  0  0  0
   -7.7672   -1.7571  -18.5576 H   0  0  0  0  0  0  0  0  0  0  0  0
   -4.5274    0.3901  -17.1643 H   0  0  0  0  0  0  0  0  0  0  0  0
   -3.1276    1.7334  -18.6741 H   0  0  0  0  0  0  0  0  0  0  0  0
   -2.5075    2.4411  -20.9589 H   0  0  0  0  0  0  0  0  0  0  0  0
   -3.7943    1.5975  -22.8997 H   0  0  0  0  0  0  0  0  0  0  0  0
   -5.7094    0.1100  -22.5898 H   0  0  0  0  0  0  0  0  0  0  0  0
   -6.3006   -2.5702  -22.3617 H   0  0  0  0  0  0  0  0  0  0  0  0
   -7.1252   -3.4044  -21.0379 H   0  0  0  0  0  0  0  0  0  0  0  0
  -10.1557   -4.2758  -22.8254 H   0  0  0  0  0  0  0  0  0  0  0  0
   -8.7040   -4.8933  -21.9121 H   0  0  0  0  0  0  0  0  0  0  0  0
   -8.7671   -3.6469  -24.7664 H   0  0  0  0  0  0  0  0  0  0  0  0
   -7.2744   -4.3039  -23.9650 H   0  0  0  0  0  0  0  0  0  0  0  0
  -11.1312   -3.0530  -21.9095 H   0  0  0  0  0  0  0  0  0  0  0  0
  -14.4442   -0.5958  -22.9313 H   0  0  0  0  0  0  0  0  0  0  0  0
  -12.8830    1.0386  -24.0206 H   0  0  0  0  0  0  0  0  0  0  0  0
  1  2  1  0
  2  3  1  0
  3  4  2  0
  3  5  1  0
  5  6  1  0
  6  7  1  0
  8  7  1  6
  8  9  1  0
  9 10  2  0
  9 11  1  0
 11 12  1  0
 12 13  2  0
 13 14  1  0
 14 15  2  0
 15 16  1  0
 16 17  2  0
 17 18  1  0
 18 19  2  0
 19 20  1  0
 20 21  2  0
 11 22  1  0
 22 23  1  0
 23 24  1  0
 24 25  1  0
  8 26  1  0
 26 27  2  0
 27 28  1  0
 28 29  1  0
 28 30  2  0
 30 31  1  0
 31 32  2  0
 32 33  1  0
 33 34  2  0
 33  6  1  0
 23  8  1  0
 32 26  1  0
 21 12  1  0
 25 23  1  0
 21 16  1  0
  1 35  1  0
  1 36  1  0
  1 37  1  0
  2 38  1  0
  5 39  1  0
  5 40  1  0
  7 41  1  0
  7 42  1  0
 13 43  1  0
 15 44  1  0
 17 45  1  0
 18 46  1  0
 19 47  1  0
 20 48  1  0
 22 49  1  0
 22 50  1  0
 24 51  1  0
 24 52  1  0
 25 53  1  0
 25 54  1  0
 27 55  1  0
 30 56  1  0
 31 57  1  0
M  END
$$$$

     RDKit          3D

 59 63  0  0  0  0  0  0  0  0999 V2000
   -7.6595    5.0070  -22.4751 C   0  0  0  0  0  0  0  0  0  0  0  0
   -7.0165    3.6261  -22.4814 C   0  0  0  0  0  0  0  0  0  0  0  0
   -7.7641    2.6446  -23.2552 N   0  0  0  0  0  0  0  0  0  0  0  0
   -7.5031    2.5085  -24.5691 C   0  0  0  0  0  0  0  0  0  0  0  0
   -6.7522    3.2452  -25.1964 O   0  0  0  0  0  0  0  0  0  0  0  0
   -8.1553    1.3490  -25.3256 C   0  0  0  0  0  0  0  0  0  0  0  0
   -8.9868    0.4560  -24.5624 N   0  0  0  0  0  0  0  0  0  0  0  0
   -8.5060   -0.8869  -24.2759 C   0  0  0  0  0  0  0  0  0  0  0  0
   -9.0660   -1.4197  -22.9355 C   0  0  2  0  0  0  0  0  0  0  0  0
   -8.4720   -0.5746  -21.7836 C   0  0  0  0  0  0  0  0  0  0  0  0
   -8.7843    0.5658  -21.5008 O   0  0  0  0  0  0  0  0  0  0  0  0
   -7.5075   -1.3101  -21.1380 N   0  0  0  0  0  0  0  0  0  0  0  0
   -6.6565   -0.7998  -20.1203 C   0  0  0  0  0  0  0  0  0  0  0  0
   -6.8816   -1.1570  -18.8143 C   0  0  0  0  0  0  0  0  0  0  0  0
   -6.1151   -0.7657  -17.7677 N   0  0  0  0  0  0  0  0  0  0  0  0
   -5.0901    0.0127  -18.0104 C   0  0  0  0  0  0  0  0  0  0  0  0
   -4.7532    0.4769  -19.3147 C   0  0  0  0  0  0  0  0  0  0  0  0
   -3.6639    1.3604  -19.5323 C   0  0  0  0  0  0  0  0  0  0  0  0
   -3.3276    1.7614  -20.7922 C   0  0  0  0  0  0  0  0  0  0  0  0
   -4.0683    1.2965  -21.9002 C   0  0  0  0  0  0  0  0  0  0  0  0
   -5.1512    0.4691  -21.7167 C   0  0  0  0  0  0  0  0  0  0  0  0
   -5.5332    0.0404  -20.4143 C   0  0  0  0  0  0  0  0  0  0  0  0
   -7.2229   -2.5626  -21.8062 C   0  0  0  0  0  0  0  0  0  0  0  0
   -8.5294   -2.8251  -22.5616 C   0  0  2  0  0  0  0  0  0  0  0  0
   -8.4228   -3.8212  -23.7079 C   0  0  0  0  0  0  0  0  0  0  0  0
  -10.5757   -1.3000  -23.0418 C   0  0  0  0  0  0  0  0  0  0  0  0
  -11.4698   -2.2576  -22.5528 C   0  0  0  0  0  0  0  0  0  0  0  0
  -12.8246   -1.9821  -22.5043 C   0  0  0  0  0  0  0  0  0  0  0  0
  -13.8666   -3.1246  -21.6965 Cl  0  0  0  0  0  0  0  0  0  0  0  0
  -13.3622   -0.8058  -23.0285 C   0  0  0  0  0  0  0  0  0  0  0  0
  -12.4947    0.1096  -23.5923 C   0  0  0  0  0  0  0  0  0  0  0  0
  -11.1246   -0.1439  -23.6181 C   0  0  0  0  0  0  0  0  0  0  0  0
  -10.2500    0.8782  -24.2575 C   0  0  0  0  0  0  0  0  0  0  0  0
  -10.6413    2.0222  -24.4719 O   0  0  0  0  0  0  0  0  0  0  0  0
   -7.0892    5.7122  -21.8609 H   0  0  0  0  0  0  0  0  0  0  0  0
   -7.6932    5.3949  -23.4962 H   0  0  0  0  0  0  0  0  0  0  0  0
   -8.6795    4.9682  -22.0870 H   0  0  0  0  0  0  0  0  0  0  0  0
   -6.0142    3.7092  -22.9152 H   0  0  0  0  0  0  0  0  0  0  0  0
   -6.9012    3.2078  -21.4802 H   0  0  0  0  0  0  0  0  0  0  0  0
   -8.3109    1.9475  -22.7451 H   0  0  0  0  0  0  0  0  0  0  0  0
   -7.3438    0.7734  -25.7850 H   0  0  0  0  0  0  0  0  0  0  0  0
   -8.7394    1.7873  -26.1385 H   0  0  0  0  0  0  0  0  0  0  0  0
   -7.4118   -0.8599  -24.2305 H   0  0  0  0  0  0  0  0  0  0  0  0
   -8.8024   -1.5702  -25.0819 H   0  0  0  0  0  0  0  0  0  0  0  0
   -7.7500   -1.7623  -18.5579 H   0  0  0  0  0  0  0  0  0  0  0  0
   -4.4872    0.3445  -17.1603 H   0  0  0  0  0  0  0  0  0  0  0  0
   -3.1140    1.7185  -18.6672 H   0  0  0  0  0  0  0  0  0  0  0  0
   -2.4997    2.4492  -20.9491 H   0  0  0  0  0  0  0  0  0  0  0  0
   -3.7911    1.6132  -22.9014 H   0  0  0  0  0  0  0  0  0  0  0  0
   -5.7201    0.1338  -22.5798 H   0  0  0  0  0  0  0  0  0  0  0  0
   -6.3672   -2.4694  -22.4936 H   0  0  0  0  0  0  0  0  0  0  0  0
   -6.9742   -3.3354  -21.0754 H   0  0  0  0  0  0  0  0  0  0  0  0
   -9.2230   -3.2056  -21.8070 H   0  0  0  0  0  0  0  0  0  0  0  0
   -9.3752   -3.9154  -24.2414 H   0  0  0  0  0  0  0  0  0  0  0  0
   -7.6650   -3.5093  -24.4345 H   0  0  0  0  0  0  0  0  0  0  0  0
   -8.1353   -4.8172  -23.3608 H   0  0  0  0  0  0  0  0  0  0  0  0
  -11.1329   -3.2015  -22.1381 H   0  0  0  0  0  0  0  0  0  0  0  0
  -14.4279   -0.6114  -22.9465 H   0  0  0  0  0  0  0  0  0  0  0  0
  -12.8526    1.0529  -23.9944 H   0  0  0  0  0  0  0  0  0  0  0  0
  1  2  1  0
  2  3  1  0
  3  4  1  0
  4  5  2  0
  4  6  1  0
  6  7  1  0
  7  8  1  0
  9  8  1  6
  9 10  1  0
 10 11  2  0
 10 12  1  0
 12 13  1  0
 13 14  2  0
 14 15  1  0
 15 16  2  0
 16 17  1  0
 17 18  2  0
 18 19  1  0
 19 20  2  0
 20 21  1  0
 21 22  2  0
 12 23  1  0
 23 24  1  0
 24 25  1  0
  9 26  1  0
 26 27  2  0
 27 28  1  0
 28 29  1  0
 28 30  2  0
 30 31  1  0
 31 32  2  0
 32 33  1  0
 33 34  2  0
 33  7  1  0
 24  9  1  0
 32 26  1  0
 22 13  1  0
 22 17  1  0
  1 35  1  0
  1 36  1  0
  1 37  1  0
  2 38  1  0
  2 39  1  0
  3 40  1  0
  6 41  1  0
  6 42  1  0
  8 43  1  0
  8 44  1  0
 14 45  1  0
 16 46  1  0
 18 47  1  0
 19 48  1  0
 20 49  1  0
 21 50  1  0
 23 51  1  0
 23 52  1  0
 24 53  1  1
 25 54  1  0
 25 55  1  0
 25 56  1  0
 27 57  1  0
 30 58  1  0
 31 59  1  0
M  END
$$$$

     RDKit          3D

 60 65  0  0  0  0  0  0  0  0999 V2000
   -7.0113    3.6321  -22.4900 C   0  0  0  0  0  0  0  0  0  0  0  0
   -7.7959    2.6966  -23.2711 N   0  0  0  0  0  0  0  0  0  0  0  0
   -7.5092    2.5256  -24.5757 C   0  0  0  0  0  0  0  0  0  0  0  0
   -6.7368    3.2398  -25.2023 O   0  0  0  0  0  0  0  0  0  0  0  0
   -8.1560    1.3539  -25.3220 C   0  0  0  0  0  0  0  0  0  0  0  0
   -8.9931    0.4613  -24.5628 N   0  0  0  0  0  0  0  0  0  0  0  0
   -8.5169   -0.8875  -24.2729 C   0  0  0  0  0  0  0  0  0  0  0  0
   -9.0672   -1.4198  -22.9241 C   0  0  2  0  0  0  0  0  0  0  0  0
   -8.4663   -0.5693  -21.7820 C   0  0  0  0  0  0  0  0  0  0  0  0
   -8.7735    0.5734  -21.5001 O   0  0  0  0  0  0  0  0  0  0  0  0
   -7.4985   -1.3049  -21.1428 N   0  0  0  0  0  0  0  0  0  0  0  0
   -6.6520   -0.7947  -20.1217 C   0  0  0  0  0  0  0  0  0  0  0  0
   -6.8852   -1.1462  -18.8167 C   0  0  0  0  0  0  0  0  0  0  0  0
   -6.1262   -0.7466  -17.7668 N   0  0  0  0  0  0  0  0  0  0  0  0
   -5.0994    0.0303  -18.0073 C   0  0  0  0  0  0  0  0  0  0  0  0
   -4.7527    0.4864  -19.3113 C   0  0  0  0  0  0  0  0  0  0  0  0
   -3.6616    1.3667  -19.5322 C   0  0  0  0  0  0  0  0  0  0  0  0
   -3.3229    1.7604  -20.7933 C   0  0  0  0  0  0  0  0  0  0  0  0
   -4.0593    1.2871  -21.9008 C   0  0  0  0  0  0  0  0  0  0  0  0
   -5.1416    0.4613  -21.7170 C   0  0  0  0  0  0  0  0  0  0  0  0
   -5.5287    0.0444  -20.4132 C   0  0  0  0  0  0  0  0  0  0  0  0
   -7.2254   -2.5627  -21.8051 C   0  0  0  0  0  0  0  0  0  0  0  0
   -8.5369   -2.8313  -22.5491 C   0  0  2  0  0  0  0  0  0  0  0  0
   -8.4128   -3.8613  -23.6880 C   0  0  0  0  0  0  0  0  0  0  0  0
   -9.7464   -4.2516  -24.2759 C   0  0  0  0  0  0  0  0  0  0  0  0
  -10.5574   -5.1573  -23.7403 N   0  0  0  0  0  0  0  0  0  0  0  0
  -11.6238   -5.1930  -24.5406 N   0  0  0  0  0  0  0  0  0  0  0  0
  -11.4585   -4.3453  -25.5141 N   0  0  0  0  0  0  0  0  0  0  0  0
  -10.2759   -3.7382  -25.3786 N   0  0  0  0  0  0  0  0  0  0  0  0
  -10.5751   -1.2806  -23.0267 C   0  0  0  0  0  0  0  0  0  0  0  0
  -11.4630   -2.2248  -22.5142 C   0  0  0  0  0  0  0  0  0  0  0  0
  -12.8200   -1.9666  -22.4775 C   0  0  0  0  0  0  0  0  0  0  0  0
  -13.8501   -3.1256  -21.6751 Cl  0  0  0  0  0  0  0  0  0  0  0  0
  -13.3637   -0.7992  -23.0142 C   0  0  0  0  0  0  0  0  0  0  0  0
  -12.5008    0.1144  -23.5892 C   0  0  0  0  0  0  0  0  0  0  0  0
  -11.1303   -0.1336  -23.6165 C   0  0  0  0  0  0  0  0  0  0  0  0
  -10.2596    0.8838  -24.2686 C   0  0  0  0  0  0  0  0  0  0  0  0
  -10.6495    2.0256  -24.4937 O   0  0  0  0  0  0  0  0  0  0  0  0
   -7.3110    4.6740  -22.6475 H   0  0  0  0  0  0  0  0  0  0  0  0
   -5.9486    3.5505  -22.7470 H   0  0  0  0  0  0  0  0  0  0  0  0
   -7.1399    3.3848  -21.4354 H   0  0  0  0  0  0  0  0  0  0  0  0
   -8.3484    2.0067  -22.7553 H   0  0  0  0  0  0  0  0  0  0  0  0
   -7.3390    0.7782  -25.7695 H   0  0  0  0  0  0  0  0  0  0  0  0
   -8.7329    1.7806  -26.1456 H   0  0  0  0  0  0  0  0  0  0  0  0
   -8.8325   -1.5739  -25.0711 H   0  0  0  0  0  0  0  0  0  0  0  0
   -7.4224   -0.8677  -24.2339 H   0  0  0  0  0  0  0  0  0  0  0  0
   -7.7534   -1.7531  -18.5633 H   0  0  0  0  0  0  0  0  0  0  0  0
   -4.5040    0.3683  -17.1534 H   0  0  0  0  0  0  0  0  0  0  0  0
   -3.1106    1.7307  -18.6699 H   0  0  0  0  0  0  0  0  0  0  0  0
   -2.4972    2.4488  -20.9565 H   0  0  0  0  0  0  0  0  0  0  0  0
   -3.7855    1.6054  -22.9019 H   0  0  0  0  0  0  0  0  0  0  0  0
   -5.7084    0.1206  -22.5793 H   0  0  0  0  0  0  0  0  0  0  0  0
   -6.9731   -3.3340  -21.0751 H   0  0  0  0  0  0  0  0  0  0  0  0
   -6.3805   -2.4807  -22.5068 H   0  0  0  0  0  0  0  0  0  0  0  0
   -9.2267   -3.2241  -21.7952 H   0  0  0  0  0  0  0  0  0  0  0  0
   -7.9356   -4.7737  -23.3233 H   0  0  0  0  0  0  0  0  0  0  0  0
   -7.7753   -3.4667  -24.4853 H   0  0  0  0  0  0  0  0  0  0  0  0
  -11.1173   -3.1693  -22.1102 H   0  0  0  0  0  0  0  0  0  0  0  0
  -14.4302   -0.6110  -22.9344 H   0  0  0  0  0  0  0  0  0  0  0  0
  -12.8676    1.0497  -24.0043 H   0  0  0  0  0  0  0  0  0  0  0  0
  1  2  1  0
  2  3  1  0
  3  4  2  0
  3  5  1  0
  5  6  1  0
  6  7  1  0
  8  7  1  6
  8  9  1  0
  9 10  2  0
  9 11  1  0
 11 12  1  0
 12 13  2  0
 13 14  1  0
 14 15  2  0
 15 16  1  0
 16 17  2  0
 17 18  1  0
 18 19  2  0
 19 20  1  0
 20 21  2  0
 11 22  1  0
 22 23  1  0
 23 24  1  0
 24 25  1  0
 25 26  1  0
 26 27  2  0
 27 28  1  0
 28 29  1  0
  8 30  1  0
 30 31  2  0
 31 32  1  0
 32 33  1  0
 32 34  2  0
 34 35  1  0
 35 36  2  0
 36 37  1  0
 37 38  2  0
 37  6  1  0
 23  8  1  0
 29 25  2  0
 36 30  1  0
 21 12  1  0
 21 16  1  0
  1 39  1  0
  1 40  1  0
  1 41  1  0
  2 42  1  0
  5 43  1  0
  5 44  1  0
  7 45  1  0
  7 46  1  0
 13 47  1  0
 15 48  1  0
 17 49  1  0
 18 50  1  0
 19 51  1  0
 20 52  1  0
 22 53  1  0
 22 54  1  0
 23 55  1  1
 24 56  1  0
 24 57  1  0
 31 58  1  0
 34 59  1  0
 35 60  1  0
M  CHG  1  28  -1
M  END
$$$$

     RDKit          3D

 60 65  0  0  0  0  0  0  0  0999 V2000
   -6.8314    3.4357  -22.3940 C   0  0  0  0  0  0  0  0  0  0  0  0
   -7.5955    2.5764  -23.2749 N   0  0  0  0  0  0  0  0  0  0  0  0
   -7.2151    2.3821  -24.5510 C   0  0  0  0  0  0  0  0  0  0  0  0
   -6.3418    3.0472  -25.0980 O   0  0  0  0  0  0  0  0  0  0  0  0
   -7.8832    1.2696  -25.3447 C   0  0  0  0  0  0  0  0  0  0  0  0
   -8.7737    0.3682  -24.6923 N   0  0  0  0  0  0  0  0  0  0  0  0
   -8.2930   -0.9581  -24.3427 C   0  0  0  0  0  0  0  0  0  0  0  0
   -8.9181   -1.4637  -23.0180 C   0  0  2  0  0  0  0  0  0  0  0  0
   -8.3569   -0.6163  -21.8491 C   0  0  0  0  0  0  0  0  0  0  0  0
   -8.6842    0.5204  -21.5622 O   0  0  0  0  0  0  0  0  0  0  0  0
   -7.3979   -1.3499  -21.1912 N   0  0  0  0  0  0  0  0  0  0  0  0
   -6.5515   -0.8243  -20.1774 C   0  0  0  0  0  0  0  0  0  0  0  0
   -6.8044   -1.1221  -18.8624 C   0  0  0  0  0  0  0  0  0  0  0  0
   -6.0497   -0.6948  -17.8205 N   0  0  0  0  0  0  0  0  0  0  0  0
   -5.0241    0.0789  -18.0818 C   0  0  0  0  0  0  0  0  0  0  0  0
   -4.6599    0.4830  -19.4002 C   0  0  0  0  0  0  0  0  0  0  0  0
   -3.5684    1.3573  -19.6484 C   0  0  0  0  0  0  0  0  0  0  0  0
   -3.1837    1.6522  -20.9255 C   0  0  0  0  0  0  0  0  0  0  0  0
   -3.8768    1.0923  -22.0221 C   0  0  0  0  0  0  0  0  0  0  0  0
   -4.9680    0.2852  -21.8100 C   0  0  0  0  0  0  0  0  0  0  0  0
   -5.4077   -0.0237  -20.4914 C   0  0  0  0  0  0  0  0  0  0  0  0
   -7.1071   -2.6115  -21.8421 C   0  0  0  0  0  0  0  0  0  0  0  0
   -8.4058   -2.8721  -22.6159 C   0  0  2  0  0  0  0  0  0  0  0  0
   -8.3022   -3.8944  -23.7422 C   0  0  0  0  0  0  0  0  0  0  0  0
  -10.4237   -1.3260  -23.1523 C   0  0  0  0  0  0  0  0  0  0  0  0
  -11.3319   -2.2318  -22.5946 C   0  0  0  0  0  0  0  0  0  0  0  0
  -12.6898   -1.9679  -22.6255 C   0  0  0  0  0  0  0  0  0  0  0  0
  -13.7722   -3.0567  -21.7984 Cl  0  0  0  0  0  0  0  0  0  0  0  0
  -13.2065   -0.8308  -23.2464 C   0  0  0  0  0  0  0  0  0  0  0  0
  -12.3194    0.0511  -23.8347 C   0  0  0  0  0  0  0  0  0  0  0  0
  -10.9460   -0.1902  -23.7883 C   0  0  0  0  0  0  0  0  0  0  0  0
  -10.0314    0.8252  -24.3845 C   0  0  0  0  0  0  0  0  0  0  0  0
  -10.3571    1.9905  -24.5660 O   0  0  0  0  0  0  0  0  0  0  0  0
   -6.9688    0.7204  -26.4116 C   0  0  0  0  0  0  0  0  0  0  0  0
   -8.1008    1.6029  -26.8021 C   0  0  0  0  0  0  0  0  0  0  0  0
   -7.3106    3.3974  -21.4123 H   0  0  0  0  0  0  0  0  0  0  0  0
   -5.7932    3.0907  -22.2876 H   0  0  0  0  0  0  0  0  0  0  0  0
   -6.8191    4.4745  -22.7399 H   0  0  0  0  0  0  0  0  0  0  0  0
   -8.2709    1.9672  -22.8280 H   0  0  0  0  0  0  0  0  0  0  0  0
   -8.5351   -1.6609  -25.1503 H   0  0  0  0  0  0  0  0  0  0  0  0
   -7.2049   -0.9033  -24.2393 H   0  0  0  0  0  0  0  0  0  0  0  0
   -7.6828   -1.7085  -18.5961 H   0  0  0  0  0  0  0  0  0  0  0  0
   -4.4412    0.4482  -17.2351 H   0  0  0  0  0  0  0  0  0  0  0  0
   -3.0563    1.7917  -18.7960 H   0  0  0  0  0  0  0  0  0  0  0  0
   -2.3523    2.3267  -21.1103 H   0  0  0  0  0  0  0  0  0  0  0  0
   -3.5580    1.3221  -23.0348 H   0  0  0  0  0  0  0  0  0  0  0  0
   -5.4996   -0.1240  -22.6639 H   0  0  0  0  0  0  0  0  0  0  0  0
   -6.2382   -2.5268  -22.5166 H   0  0  0  0  0  0  0  0  0  0  0  0
   -6.8689   -3.3776  -21.0976 H   0  0  0  0  0  0  0  0  0  0  0  0
   -9.1128   -3.2334  -21.8640 H   0  0  0  0  0  0  0  0  0  0  0  0
   -7.5156   -3.6258  -24.4579 H   0  0  0  0  0  0  0  0  0  0  0  0
   -9.2469   -3.9580  -24.2954 H   0  0  0  0  0  0  0  0  0  0  0  0
   -8.0658   -4.8959  -23.3678 H   0  0  0  0  0  0  0  0  0  0  0  0
  -10.9975   -3.1228  -22.0767 H   0  0  0  0  0  0  0  0  0  0  0  0
  -14.2768   -0.6452  -23.2260 H   0  0  0  0  0  0  0  0  0  0  0  0
  -12.6741    0.9469  -24.3352 H   0  0  0  0  0  0  0  0  0  0  0  0
   -7.0520   -0.3439  -26.6075 H   0  0  0  0  0  0  0  0  0  0  0  0
   -5.9722    1.1397  -26.4110 H   0  0  0  0  0  0  0  0  0  0  0  0
   -8.9308    1.1389  -27.3184 H   0  0  0  0  0  0  0  0  0  0  0  0
   -7.9054    2.6377  -27.0542 H   0  0  0  0  0  0  0  0  0  0  0  0
  1  2  1  0
  2  3  1  0
  3  4  2  0
  3  5  1  0
  5  6  1  0
  6  7  1  0
  8  7  1  6
  8  9  1  0
  9 10  2  0
  9 11  1  0
 11 12  1  0
 12 13  2  0
 13 14  1  0
 14 15  2  0
 15 16  1  0
 16 17  2  0
 17 18  1  0
 18 19  2  0
 19 20  1  0
 20 21  2  0
 11 22  1  0
 22 23  1  0
 23 24  1  0
  8 25  1  0
 25 26  2  0
 26 27  1  0
 27 28  1  0
 27 29  2  0
 29 30  1  0
 30 31  2  0
 31 32  1  0
 32 33  2  0
  5 34  1  0
 34 35  1  0
 35  5  1  0
 32  6  1  0
 23  8  1  0
 31 25  1  0
 21 12  1  0
 21 16  1  0
  1 36  1  0
  1 37  1  0
  1 38  1  0
  2 39  1  0
  7 40  1  0
  7 41  1  0
 13 42  1  0
 15 43  1  0
 17 44  1  0
 18 45  1  0
 19 46  1  0
 20 47  1  0
 22 48  1  0
 22 49  1  0
 23 50  1  1
 24 51  1  0
 24 52  1  0
 24 53  1  0
 26 54  1  0
 29 55  1  0
 30 56  1  0
 34 57  1  0
 34 58  1  0
 35 59  1  0
 35 60  1  0
M  END
$$$$

     RDKit          3D

 43 47  0  0  0  0  0  0  0  0999 V2000
    5.0600   -3.1075   22.1967 O   0  0  0  0  0  0  0  0  0  0  0  0
    6.0591   -2.4210   22.2713 C   0  0  0  0  0  0  0  0  0  0  0  0
    6.9921   -2.7059   23.2397 N   0  0  0  0  0  0  0  0  0  0  0  0
    8.2061   -1.9690   22.9655 C   0  0  2  0  0  0  0  0  0  0  0  0
    9.5114   -2.7595   22.8793 C   0  0  0  0  0  0  0  0  0  0  0  0
   10.0182   -2.0347   24.1340 C   0  0  1  0  0  0  0  0  0  0  0  0
   11.3356   -1.3054   23.9917 C   0  0  0  0  0  0  0  0  0  0  0  0
   11.3875    0.0497   24.3375 C   0  0  0  0  0  0  0  0  0  0  0  0
   12.5877    0.7579   24.2875 C   0  0  0  0  0  0  0  0  0  0  0  0
   13.7405    0.1307   23.8285 C   0  0  0  0  0  0  0  0  0  0  0  0
   13.7149   -1.2319   23.5101 C   0  0  0  0  0  0  0  0  0  0  0  0
   12.5135   -1.9538   23.5678 C   0  0  0  0  0  0  0  0  0  0  0  0
   12.5154   -3.6325   23.0753 Cl  0  0  0  0  0  0  0  0  0  0  0  0
    8.7299   -1.1752   24.1489 C   0  0  0  0  0  0  0  0  0  0  0  0
    7.7729   -1.1631   21.7394 C   0  0  0  0  0  0  0  0  0  0  0  0
    8.4850   -0.3258   21.2245 O   0  0  0  0  0  0  0  0  0  0  0  0
    6.4854   -1.4793   21.3559 N   0  0  0  0  0  0  0  0  0  0  0  0
    5.7652   -0.9687   20.2315 C   0  0  0  0  0  0  0  0  0  0  0  0
    6.1925   -1.1948   18.8967 C   0  0  0  0  0  0  0  0  0  0  0  0
    5.5945   -0.6855   17.7990 N   0  0  0  0  0  0  0  0  0  0  0  0
    4.5237    0.1068   18.0020 C   0  0  0  0  0  0  0  0  0  0  0  0
    4.0087    0.4012   19.2703 C   0  0  0  0  0  0  0  0  0  0  0  0
    2.9082    1.2645   19.4132 C   0  0  0  0  0  0  0  0  0  0  0  0
    2.4165    1.5731   20.6827 C   0  0  0  0  0  0  0  0  0  0  0  0
    3.0145    1.0201   21.8165 C   0  0  0  0  0  0  0  0  0  0  0  0
    4.1094    0.1574   21.6755 C   0  0  0  0  0  0  0  0  0  0  0  0
    4.6236   -0.1581   20.4076 C   0  0  0  0  0  0  0  0  0  0  0  0
    7.0246   -3.6724   23.5517 H   0  0  0  0  0  0  0  0  0  0  0  0
    9.3877   -3.8324   23.0205 H   0  0  0  0  0  0  0  0  0  0  0  0
   10.0998   -2.5868   21.9695 H   0  0  0  0  0  0  0  0  0  0  0  0
   10.0543   -2.6970   25.0068 H   0  0  0  0  0  0  0  0  0  0  0  0
   10.4823    0.5488   24.6655 H   0  0  0  0  0  0  0  0  0  0  0  0
   12.6256    1.7842   24.6373 H   0  0  0  0  0  0  0  0  0  0  0  0
   14.6453    0.7239   23.7205 H   0  0  0  0  0  0  0  0  0  0  0  0
   14.6202   -1.7290   23.1856 H   0  0  0  0  0  0  0  0  0  0  0  0
    8.8669   -0.1218   23.8932 H   0  0  0  0  0  0  0  0  0  0  0  0
    8.1131   -1.2278   25.0548 H   0  0  0  0  0  0  0  0  0  0  0  0
    7.0697   -1.8189   18.7542 H   0  0  0  0  0  0  0  0  0  0  0  0
    4.0403    0.5544   17.1415 H   0  0  0  0  0  0  0  0  0  0  0  0
    2.4362    1.6996   18.5374 H   0  0  0  0  0  0  0  0  0  0  0  0
    1.5838    2.2629   20.7812 H   0  0  0  0  0  0  0  0  0  0  0  0
    2.6343    1.2728   22.8025 H   0  0  0  0  0  0  0  0  0  0  0  0
    4.5686   -0.2621   22.5623 H   0  0  0  0  0  0  0  0  0  0  0  0
  1  2  2  0
  2  3  1  0
  4  3  1  1
  4  5  1  0
  5  6  1  0
  6  7  1  0
  7  8  2  0
  8  9  1  0
  9 10  2  0
 10 11  1  0
 11 12  2  0
 12 13  1  0
  6 14  1  0
  4 15  1  0
 15 16  2  0
 15 17  1  0
 17 18  1  0
 18 19  2  0
 19 20  1  0
 20 21  2  0
 21 22  1  0
 22 23  2  0
 23 24  1  0
 24 25  2  0
 25 26  1  0
 26 27  2  0
 17  2  1  0
 27 18  1  0
 14  4  1  0
 27 22  1  0
 12  7  1  0
  3 28  1  0
  5 29  1  0
  5 30  1  0
  6 31  1  1
  8 32  1  0
  9 33  1  0
 10 34  1  0
 11 35  1  0
 14 36  1  0
 14 37  1  0
 19 38  1  0
 21 39  1  0
 23 40  1  0
 24 41  1  0
 25 42  1  0
 26 43  1  0
M  END
$$$$

     RDKit          3D

 40 43  0  0  0  0  0  0  0  0999 V2000
   -4.4109    0.2181  -22.5064 C   0  0  0  0  0  0  0  0  0  0  0  0
   -4.0795    0.3755  -21.1159 N   0  0  0  0  0  0  0  0  0  0  0  0
   -2.9916    1.0804  -20.7656 N   0  0  0  0  0  0  0  0  0  0  0  0
   -2.9317    1.0461  -19.4541 C   0  0  0  0  0  0  0  0  0  0  0  0
   -4.0033    0.2801  -18.9092 C   0  0  0  0  0  0  0  0  0  0  0  0
   -4.4554   -0.1135  -17.6305 C   0  0  0  0  0  0  0  0  0  0  0  0
   -5.5713   -0.8083  -17.4976 N   0  0  0  0  0  0  0  0  0  0  0  0
   -6.2662   -1.1744  -18.5974 C   0  0  0  0  0  0  0  0  0  0  0  0
   -5.9157   -0.9027  -19.9133 C   0  0  0  0  0  0  0  0  0  0  0  0
   -6.5684   -1.5600  -21.0029 N   0  0  0  0  0  0  0  0  0  0  0  0
   -7.7124   -1.1703  -21.6770 C   0  0  0  0  0  0  0  0  0  0  0  0
   -8.3292   -0.1542  -21.4290 O   0  0  0  0  0  0  0  0  0  0  0  0
   -8.0443   -2.0665  -22.8907 C   0  0  2  0  0  0  0  0  0  0  0  0
   -7.0892   -1.5713  -24.0194 C   0  0  0  0  0  0  0  0  0  0  0  0
   -7.6895   -1.5186  -25.3429 N   0  0  0  0  0  0  0  0  0  0  0  0
   -8.9494   -0.4456  -25.4573 S   0  0  0  0  0  0  0  0  0  0  0  0
   -8.4320    0.8745  -25.1405 O   0  0  0  0  0  0  0  0  0  0  0  0
   -9.6098   -0.7344  -26.7157 O   0  0  0  0  0  0  0  0  0  0  0  0
  -10.0001   -1.0379  -24.1505 C   0  0  0  0  0  0  0  0  0  0  0  0
  -11.3434   -0.6769  -24.1756 C   0  0  0  0  0  0  0  0  0  0  0  0
  -12.2602   -1.4272  -23.4513 C   0  0  0  0  0  0  0  0  0  0  0  0
  -11.8074   -2.5391  -22.7472 C   0  0  0  0  0  0  0  0  0  0  0  0
  -12.9431   -3.6029  -21.9740 Cl  0  0  0  0  0  0  0  0  0  0  0  0
  -10.4512   -2.8150  -22.6213 C   0  0  0  0  0  0  0  0  0  0  0  0
   -9.5167   -1.9881  -23.2475 C   0  0  0  0  0  0  0  0  0  0  0  0
   -4.7403   -0.1245  -20.0391 C   0  0  0  0  0  0  0  0  0  0  0  0
   -3.6523    0.7393  -23.0867 H   0  0  0  0  0  0  0  0  0  0  0  0
   -4.4285   -0.8448  -22.7644 H   0  0  0  0  0  0  0  0  0  0  0  0
   -5.3922    0.6560  -22.6966 H   0  0  0  0  0  0  0  0  0  0  0  0
   -2.1240    1.5522  -18.9552 H   0  0  0  0  0  0  0  0  0  0  0  0
   -3.9034    0.1414  -16.7274 H   0  0  0  0  0  0  0  0  0  0  0  0
   -7.1714   -1.7507  -18.4084 H   0  0  0  0  0  0  0  0  0  0  0  0
   -6.2517   -2.5017  -21.1854 H   0  0  0  0  0  0  0  0  0  0  0  0
   -7.8146   -3.1095  -22.6386 H   0  0  0  0  0  0  0  0  0  0  0  0
   -6.1995   -2.2070  -24.0847 H   0  0  0  0  0  0  0  0  0  0  0  0
   -6.7712   -0.5526  -23.7830 H   0  0  0  0  0  0  0  0  0  0  0  0
   -7.9586   -2.4254  -25.7060 H   0  0  0  0  0  0  0  0  0  0  0  0
  -11.6863    0.1445  -24.7977 H   0  0  0  0  0  0  0  0  0  0  0  0
  -13.3145   -1.1792  -23.4501 H   0  0  0  0  0  0  0  0  0  0  0  0
  -10.1185   -3.6374  -21.9920 H   0  0  0  0  0  0  0  0  0  0  0  0
  1  2  1  0
  2  3  1  0
  3  4  2  0
  4  5  1  0
  5  6  2  0
  6  7  1  0
  7  8  2  0
  8  9  1  0
  9 10  1  0
 10 11  1  0
 11 12  2  0
 11 13  1  0
 13 14  1  0
 14 15  1  0
 15 16  1  0
 16 17  2  0
 16 18  2  0
 16 19  1  0
 19 20  2  0
 20 21  1  0
 21 22  2  0
 22 23  1  0
 22 24  1  0
 24 25  2  0
  9 26  2  0
 26  2  1  0
 26  5  1  0
 25 13  1  0
 25 19  1  0
  1 27  1  0
  1 28  1  0
  1 29  1  0
  4 30  1  0
  6 31  1  0
  8 32  1  0
 10 33  1  0
 13 34  1  1
 14 35  1  0
 14 36  1  0
 15 37  1  0
 20 38  1  0
 21 39  1  0
 24 40  1  0
M  END
$$$$

     RDKit          3D

 56 60  0  0  0  0  0  0  0  0999 V2000
   -7.0054    3.6334  -22.4922 C   0  0  0  0  0  0  0  0  0  0  0  0
   -7.7933    2.6995  -23.2704 N   0  0  0  0  0  0  0  0  0  0  0  0
   -7.5113    2.5269  -24.5789 C   0  0  0  0  0  0  0  0  0  0  0  0
   -6.7403    3.2372  -25.2106 O   0  0  0  0  0  0  0  0  0  0  0  0
   -8.1544    1.3501  -25.3174 C   0  0  0  0  0  0  0  0  0  0  0  0
   -8.9878    0.4561  -24.5549 N   0  0  0  0  0  0  0  0  0  0  0  0
   -8.5136   -0.8903  -24.2703 C   0  0  0  0  0  0  0  0  0  0  0  0
   -9.0739   -1.4231  -22.9309 C   0  0  2  0  0  0  0  0  0  0  0  0
   -8.4780   -0.5719  -21.7827 C   0  0  0  0  0  0  0  0  0  0  0  0
   -8.7902    0.5688  -21.5005 O   0  0  0  0  0  0  0  0  0  0  0  0
   -7.5045   -1.3033  -21.1434 N   0  0  0  0  0  0  0  0  0  0  0  0
   -6.6608   -0.7881  -20.1216 C   0  0  0  0  0  0  0  0  0  0  0  0
   -6.8883   -1.1414  -18.8148 C   0  0  0  0  0  0  0  0  0  0  0  0
   -6.1269   -0.7451  -17.7662 N   0  0  0  0  0  0  0  0  0  0  0  0
   -5.1035    0.0375  -18.0062 C   0  0  0  0  0  0  0  0  0  0  0  0
   -4.7594    0.4915  -19.3132 C   0  0  0  0  0  0  0  0  0  0  0  0
   -3.6656    1.3697  -19.5328 C   0  0  0  0  0  0  0  0  0  0  0  0
   -3.3227    1.7620  -20.7971 C   0  0  0  0  0  0  0  0  0  0  0  0
   -4.0591    1.2865  -21.9024 C   0  0  0  0  0  0  0  0  0  0  0  0
   -5.1432    0.4604  -21.7184 C   0  0  0  0  0  0  0  0  0  0  0  0
   -5.5330    0.0474  -20.4119 C   0  0  0  0  0  0  0  0  0  0  0  0
   -7.2233   -2.5626  -21.8036 C   0  0  0  0  0  0  0  0  0  0  0  0
   -8.5303   -2.8307  -22.5594 C   0  0  2  0  0  0  0  0  0  0  0  0
   -8.4200   -3.8203  -23.7126 C   0  0  0  0  0  0  0  0  0  0  0  0
  -10.5859   -1.2939  -23.0366 C   0  0  0  0  0  0  0  0  0  0  0  0
  -11.4867   -2.2294  -22.5210 C   0  0  0  0  0  0  0  0  0  0  0  0
  -12.8469   -1.9614  -22.4614 C   0  0  0  0  0  0  0  0  0  0  0  0
  -13.3658   -0.7862  -23.0074 C   0  0  0  0  0  0  0  0  0  0  0  0
  -12.5018    0.1212  -23.5926 C   0  0  0  0  0  0  0  0  0  0  0  0
  -11.1324   -0.1415  -23.6197 C   0  0  0  0  0  0  0  0  0  0  0  0
  -10.2551    0.8807  -24.2649 C   0  0  0  0  0  0  0  0  0  0  0  0
  -10.6386    2.0184  -24.4909 O   0  0  0  0  0  0  0  0  0  0  0  0
   -7.3044    4.6737  -22.6496 H   0  0  0  0  0  0  0  0  0  0  0  0
   -7.1391    3.3837  -21.4379 H   0  0  0  0  0  0  0  0  0  0  0  0
   -5.9437    3.5489  -22.7472 H   0  0  0  0  0  0  0  0  0  0  0  0
   -8.3711    2.0315  -22.7656 H   0  0  0  0  0  0  0  0  0  0  0  0
   -8.7326    1.7703  -26.1450 H   0  0  0  0  0  0  0  0  0  0  0  0
   -7.3337    0.7713  -25.7577 H   0  0  0  0  0  0  0  0  0  0  0  0
   -8.8113   -1.5755  -25.0746 H   0  0  0  0  0  0  0  0  0  0  0  0
   -7.4198   -0.8656  -24.2222 H   0  0  0  0  0  0  0  0  0  0  0  0
   -7.7565   -1.7458  -18.5582 H   0  0  0  0  0  0  0  0  0  0  0  0
   -4.5245    0.3872  -17.1480 H   0  0  0  0  0  0  0  0  0  0  0  0
   -3.1258    1.7379  -18.6684 H   0  0  0  0  0  0  0  0  0  0  0  0
   -2.4981    2.4532  -20.9566 H   0  0  0  0  0  0  0  0  0  0  0  0
   -3.7852    1.6033  -22.9053 H   0  0  0  0  0  0  0  0  0  0  0  0
   -5.7098    0.1148  -22.5771 H   0  0  0  0  0  0  0  0  0  0  0  0
   -6.3686   -2.4787  -22.4935 H   0  0  0  0  0  0  0  0  0  0  0  0
   -6.9676   -3.3330  -21.0717 H   0  0  0  0  0  0  0  0  0  0  0  0
   -9.2266   -3.2123  -21.8069 H   0  0  0  0  0  0  0  0  0  0  0  0
   -8.1336   -4.8167  -23.3650 H   0  0  0  0  0  0  0  0  0  0  0  0
   -7.6595   -3.5022  -24.4353 H   0  0  0  0  0  0  0  0  0  0  0  0
   -9.3725   -3.9117  -24.2481 H   0  0  0  0  0  0  0  0  0  0  0  0
  -11.1249   -3.1557  -22.0886 H   0  0  0  0  0  0  0  0  0  0  0  0
  -13.5033   -2.6548  -21.9408 H   0  0  0  0  0  0  0  0  0  0  0  0
  -14.4295   -0.5690  -22.9311 H   0  0  0  0  0  0  0  0  0  0  0  0
  -12.8477    1.0614  -24.0097 H   0  0  0  0  0  0  0  0  0  0  0  0
  1  2  1  0
  2  3  1  0
  3  4  2  0
  3  5  1  0
  5  6  1  0
  6  7  1  0
  8  7  1  6
  8  9  1  0
  9 10  2  0
  9 11  1  0
 11 12  1  0
 12 13  2  0
 13 14  1  0
 14 15  2  0
 15 16  1  0
 16 17  2  0
 17 18  1  0
 18 19  2  0
 19 20  1  0
 20 21  2  0
 11 22  1  0
 22 23  1  0
 23 24  1  0
  8 25  1  0
 25 26  2  0
 26 27  1  0
 27 28  2  0
 28 29  1  0
 29 30  2  0
 30 31  1  0
 31 32  2  0
 31  6  1  0
 23  8  1  0
 30 25  1  0
 21 12  1  0
 21 16  1  0
  1 33  1  0
  1 34  1  0
  1 35  1  0
  2 36  1  0
  5 37  1  0
  5 38  1  0
  7 39  1  0
  7 40  1  0
 13 41  1  0
 15 42  1  0
 17 43  1  0
 18 44  1  0
 19 45  1  0
 20 46  1  0
 22 47  1  0
 22 48  1  0
 23 49  1  1
 24 50  1  0
 24 51  1  0
 24 52  1  0
 26 53  1  0
 27 54  1  0
 28 55  1  0
 29 56  1  0
M  END
$$$$

     RDKit          3D

 66 70  0  0  0  0  0  0  0  0999 V2000
   -7.0074    3.6337  -22.4912 C   0  0  0  0  0  0  0  0  0  0  0  0
   -7.8007    2.7002  -23.2700 N   0  0  0  0  0  0  0  0  0  0  0  0
   -7.5101    2.5270  -24.5776 C   0  0  0  0  0  0  0  0  0  0  0  0
   -6.7373    3.2369  -25.2039 O   0  0  0  0  0  0  0  0  0  0  0  0
   -8.1570    1.3542  -25.3221 C   0  0  0  0  0  0  0  0  0  0  0  0
   -8.9936    0.4589  -24.5654 N   0  0  0  0  0  0  0  0  0  0  0  0
   -8.5135   -0.8834  -24.2744 C   0  0  0  0  0  0  0  0  0  0  0  0
   -9.0683   -1.4112  -22.9317 C   0  0  2  0  0  0  0  0  0  0  0  0
   -8.4712   -0.5658  -21.7833 C   0  0  0  0  0  0  0  0  0  0  0  0
   -8.7806    0.5773  -21.5017 O   0  0  0  0  0  0  0  0  0  0  0  0
   -7.5038   -1.3009  -21.1408 N   0  0  0  0  0  0  0  0  0  0  0  0
   -6.6566   -0.7913  -20.1201 C   0  0  0  0  0  0  0  0  0  0  0  0
   -6.8857   -1.1448  -18.8135 C   0  0  0  0  0  0  0  0  0  0  0  0
   -6.1246   -0.7482  -17.7653 N   0  0  0  0  0  0  0  0  0  0  0  0
   -5.1016    0.0343  -18.0069 C   0  0  0  0  0  0  0  0  0  0  0  0
   -4.7577    0.4890  -19.3138 C   0  0  0  0  0  0  0  0  0  0  0  0
   -3.6645    1.3680  -19.5330 C   0  0  0  0  0  0  0  0  0  0  0  0
   -3.3226    1.7616  -20.7962 C   0  0  0  0  0  0  0  0  0  0  0  0
   -4.0599    1.2873  -21.9007 C   0  0  0  0  0  0  0  0  0  0  0  0
   -5.1433    0.4605  -21.7181 C   0  0  0  0  0  0  0  0  0  0  0  0
   -5.5314    0.0456  -20.4121 C   0  0  0  0  0  0  0  0  0  0  0  0
   -7.2297   -2.5632  -21.7973 C   0  0  0  0  0  0  0  0  0  0  0  0
   -8.5336   -2.8199  -22.5623 C   0  0  2  0  0  0  0  0  0  0  0  0
   -8.3827   -3.8127  -23.7142 C   0  0  0  0  0  0  0  0  0  0  0  0
   -9.6160   -4.0244  -24.3701 O   0  0  0  0  0  0  0  0  0  0  0  0
  -10.1956   -5.3129  -24.2058 C   0  0  0  0  0  0  0  0  0  0  0  0
  -11.6785   -5.1530  -24.4670 C   0  0  0  0  0  0  0  0  0  0  0  0
   -9.5469   -6.3037  -25.1594 C   0  0  0  0  0  0  0  0  0  0  0  0
  -10.5756   -1.2893  -23.0358 C   0  0  0  0  0  0  0  0  0  0  0  0
  -11.4637   -2.2406  -22.5249 C   0  0  0  0  0  0  0  0  0  0  0  0
  -12.8194   -1.9674  -22.4679 C   0  0  0  0  0  0  0  0  0  0  0  0
  -13.8678   -3.0865  -21.6301 Cl  0  0  0  0  0  0  0  0  0  0  0  0
  -13.3615   -0.8015  -23.0046 C   0  0  0  0  0  0  0  0  0  0  0  0
  -12.5006    0.1082  -23.5872 C   0  0  0  0  0  0  0  0  0  0  0  0
  -11.1307   -0.1429  -23.6193 C   0  0  0  0  0  0  0  0  0  0  0  0
  -10.2601    0.8813  -24.2668 C   0  0  0  0  0  0  0  0  0  0  0  0
  -10.6488    2.0196  -24.4870 O   0  0  0  0  0  0  0  0  0  0  0  0
   -5.9439    3.5484  -22.7462 H   0  0  0  0  0  0  0  0  0  0  0  0
   -7.3065    4.6757  -22.6477 H   0  0  0  0  0  0  0  0  0  0  0  0
   -7.1418    3.3844  -21.4367 H   0  0  0  0  0  0  0  0  0  0  0  0
   -8.3559    2.0147  -22.7605 H   0  0  0  0  0  0  0  0  0  0  0  0
   -7.3364    0.7772  -25.7640 H   0  0  0  0  0  0  0  0  0  0  0  0
   -8.7328    1.7798  -26.1477 H   0  0  0  0  0  0  0  0  0  0  0  0
   -8.8215   -1.5777  -25.0663 H   0  0  0  0  0  0  0  0  0  0  0  0
   -7.4181   -0.8607  -24.2320 H   0  0  0  0  0  0  0  0  0  0  0  0
   -7.7559   -1.7477  -18.5596 H   0  0  0  0  0  0  0  0  0  0  0  0
   -4.5136    0.3756  -17.1514 H   0  0  0  0  0  0  0  0  0  0  0  0
   -3.1225    1.7343  -18.6698 H   0  0  0  0  0  0  0  0  0  0  0  0
   -2.4986    2.4533  -20.9554 H   0  0  0  0  0  0  0  0  0  0  0  0
   -3.7845    1.6036  -22.9023 H   0  0  0  0  0  0  0  0  0  0  0  0
   -5.7084    0.1181  -22.5792 H   0  0  0  0  0  0  0  0  0  0  0  0
   -6.3682   -2.4770  -22.4800 H   0  0  0  0  0  0  0  0  0  0  0  0
   -6.9779   -3.3359  -21.0646 H   0  0  0  0  0  0  0  0  0  0  0  0
   -9.2562   -3.2091  -21.8386 H   0  0  0  0  0  0  0  0  0  0  0  0
   -7.6655   -3.4233  -24.4520 H   0  0  0  0  0  0  0  0  0  0  0  0
   -7.9660   -4.7601  -23.3463 H   0  0  0  0  0  0  0  0  0  0  0  0
  -10.0387   -5.6360  -23.1674 H   0  0  0  0  0  0  0  0  0  0  0  0
  -12.1300   -4.4239  -23.7929 H   0  0  0  0  0  0  0  0  0  0  0  0
  -11.8315   -4.7991  -25.4897 H   0  0  0  0  0  0  0  0  0  0  0  0
  -12.1999   -6.1023  -24.3314 H   0  0  0  0  0  0  0  0  0  0  0  0
  -10.0132   -7.2865  -25.0753 H   0  0  0  0  0  0  0  0  0  0  0  0
   -8.4811   -6.4237  -24.9511 H   0  0  0  0  0  0  0  0  0  0  0  0
   -9.6587   -5.9571  -26.1902 H   0  0  0  0  0  0  0  0  0  0  0  0
  -11.1200   -3.1832  -22.1174 H   0  0  0  0  0  0  0  0  0  0  0  0
  -14.4258   -0.6045  -22.9136 H   0  0  0  0  0  0  0  0  0  0  0  0
  -12.8575    1.0450  -24.0035 H   0  0  0  0  0  0  0  0  0  0  0  0
  1  2  1  0
  2  3  1  0
  3  4  2  0
  3  5  1  0
  5  6  1  0
  6  7  1  0
  8  7  1  6
  8  9  1  0
  9 10  2  0
  9 11  1  0
 11 12  1  0
 12 13  2  0
 13 14  1  0
 14 15  2  0
 15 16  1  0
 16 17  2  0
 17 18  1  0
 18 19  2  0
 19 20  1  0
 20 21  2  0
 11 22  1  0
 22 23  1  0
 23 24  1  0
 24 25  1  0
 25 26  1  0
 26 27  1  0
 26 28  1  0
  8 29  1  0
 29 30  2  0
 30 31  1  0
 31 32  1  0
 31 33  2  0
 33 34  1  0
 34 35  2  0
 35 36  1  0
 36 37  2  0
 36  6  1  0
 23  8  1  0
 35 29  1  0
 21 12  1  0
 21 16  1  0
  1 38  1  0
  1 39  1  0
  1 40  1  0
  2 41  1  0
  5 42  1  0
  5 43  1  0
  7 44  1  0
  7 45  1  0
 13 46  1  0
 15 47  1  0
 17 48  1  0
 18 49  1  0
 19 50  1  0
 20 51  1  0
 22 52  1  0
 22 53  1  0
 23 54  1  1
 24 55  1  0
 24 56  1  0
 26 57  1  0
 27 58  1  0
 27 59  1  0
 27 60  1  0
 28 61  1  0
 28 62  1  0
 28 63  1  0
 30 64  1  0
 33 65  1  0
 34 66  1  0
M  END
$$$$

     RDKit          3D

 66 70  0  0  0  0  0  0  0  0999 V2000
   -7.0182    3.6292  -22.4843 C   0  0  0  0  0  0  0  0  0  0  0  0
   -7.7812    2.6802  -23.2650 N   0  0  0  0  0  0  0  0  0  0  0  0
   -7.4963    2.5210  -24.5749 C   0  0  0  0  0  0  0  0  0  0  0  0
   -6.7297    3.2469  -25.1907 O   0  0  0  0  0  0  0  0  0  0  0  0
   -8.1597    1.3614  -25.3254 C   0  0  0  0  0  0  0  0  0  0  0  0
   -8.9874    0.4652  -24.5602 N   0  0  0  0  0  0  0  0  0  0  0  0
   -8.5117   -0.8778  -24.2780 C   0  0  0  0  0  0  0  0  0  0  0  0
   -9.0686   -1.4083  -22.9338 C   0  0  2  0  0  0  0  0  0  0  0  0
   -8.4689   -0.5654  -21.7806 C   0  0  0  0  0  0  0  0  0  0  0  0
   -8.7604    0.5848  -21.5039 O   0  0  0  0  0  0  0  0  0  0  0  0
   -7.5081   -1.3054  -21.1359 N   0  0  0  0  0  0  0  0  0  0  0  0
   -6.6588   -0.7866  -20.1171 C   0  0  0  0  0  0  0  0  0  0  0  0
   -6.8854   -1.1449  -18.8113 C   0  0  0  0  0  0  0  0  0  0  0  0
   -6.1178   -0.7586  -17.7623 N   0  0  0  0  0  0  0  0  0  0  0  0
   -5.0912    0.0173  -18.0102 C   0  0  0  0  0  0  0  0  0  0  0  0
   -4.7454    0.4765  -19.3136 C   0  0  0  0  0  0  0  0  0  0  0  0
   -3.6602    1.3667  -19.5277 C   0  0  0  0  0  0  0  0  0  0  0  0
   -3.3275    1.7610  -20.7921 C   0  0  0  0  0  0  0  0  0  0  0  0
   -4.0579    1.2859  -21.9033 C   0  0  0  0  0  0  0  0  0  0  0  0
   -5.1392    0.4585  -21.7209 C   0  0  0  0  0  0  0  0  0  0  0  0
   -5.5288    0.0468  -20.4138 C   0  0  0  0  0  0  0  0  0  0  0  0
   -7.2305   -2.5623  -21.8041 C   0  0  0  0  0  0  0  0  0  0  0  0
   -8.5320   -2.8179  -22.5665 C   0  0  2  0  0  0  0  0  0  0  0  0
   -8.3767   -3.8152  -23.7091 C   0  0  0  0  0  0  0  0  0  0  0  0
   -9.6132   -4.0110  -24.3685 O   0  0  0  0  0  0  0  0  0  0  0  0
  -10.1929   -5.3045  -24.2110 C   0  0  0  0  0  0  0  0  0  0  0  0
   -9.5447   -6.2978  -25.1744 C   0  0  0  0  0  0  0  0  0  0  0  0
  -11.6790   -5.1456  -24.4704 C   0  0  0  0  0  0  0  0  0  0  0  0
  -10.5746   -1.2885  -23.0308 C   0  0  0  0  0  0  0  0  0  0  0  0
  -11.4650   -2.2477  -22.5401 C   0  0  0  0  0  0  0  0  0  0  0  0
  -12.8164   -1.9650  -22.5138 C   0  0  0  0  0  0  0  0  0  0  0  0
  -13.6496   -2.8683  -21.9618 F   0  0  0  0  0  0  0  0  0  0  0  0
  -13.3647   -0.7910  -23.0136 C   0  0  0  0  0  0  0  0  0  0  0  0
  -12.4968    0.1185  -23.5822 C   0  0  0  0  0  0  0  0  0  0  0  0
  -11.1280   -0.1391  -23.6139 C   0  0  0  0  0  0  0  0  0  0  0  0
  -10.2540    0.8823  -24.2605 C   0  0  0  0  0  0  0  0  0  0  0  0
  -10.6392    2.0214  -24.4870 O   0  0  0  0  0  0  0  0  0  0  0  0
   -5.9589    3.5515  -22.7453 H   0  0  0  0  0  0  0  0  0  0  0  0
   -7.1435    3.3847  -21.4247 H   0  0  0  0  0  0  0  0  0  0  0  0
   -7.3205    4.6695  -22.6504 H   0  0  0  0  0  0  0  0  0  0  0  0
   -8.3301    1.9973  -22.7484 H   0  0  0  0  0  0  0  0  0  0  0  0
   -8.7402    1.7958  -26.1437 H   0  0  0  0  0  0  0  0  0  0  0  0
   -7.3472    0.7891  -25.7811 H   0  0  0  0  0  0  0  0  0  0  0  0
   -7.4177   -0.8555  -24.2380 H   0  0  0  0  0  0  0  0  0  0  0  0
   -8.8143   -1.5664  -25.0766 H   0  0  0  0  0  0  0  0  0  0  0  0
   -7.7443   -1.7682  -18.5635 H   0  0  0  0  0  0  0  0  0  0  0  0
   -4.4882    0.3496  -17.1634 H   0  0  0  0  0  0  0  0  0  0  0  0
   -3.1076    1.7263  -18.6636 H   0  0  0  0  0  0  0  0  0  0  0  0
   -2.5019    2.4462  -20.9541 H   0  0  0  0  0  0  0  0  0  0  0  0
   -3.7862    1.6077  -22.9058 H   0  0  0  0  0  0  0  0  0  0  0  0
   -5.7055    0.1209  -22.5845 H   0  0  0  0  0  0  0  0  0  0  0  0
   -6.3679   -2.4790  -22.4888 H   0  0  0  0  0  0  0  0  0  0  0  0
   -6.9986   -3.3299  -21.0620 H   0  0  0  0  0  0  0  0  0  0  0  0
   -9.2367   -3.2207  -21.8338 H   0  0  0  0  0  0  0  0  0  0  0  0
   -7.6663   -3.4220  -24.4485 H   0  0  0  0  0  0  0  0  0  0  0  0
   -7.9625   -4.7673  -23.3347 H   0  0  0  0  0  0  0  0  0  0  0  0
  -10.0390   -5.6482  -23.1739 H   0  0  0  0  0  0  0  0  0  0  0  0
   -8.4744   -6.4103  -24.9664 H   0  0  0  0  0  0  0  0  0  0  0  0
  -10.0163   -7.2856  -25.0977 H   0  0  0  0  0  0  0  0  0  0  0  0
   -9.6573   -5.9374  -26.2036 H   0  0  0  0  0  0  0  0  0  0  0  0
  -12.2056   -6.0955  -24.3524 H   0  0  0  0  0  0  0  0  0  0  0  0
  -12.1339   -4.4346  -23.7795 H   0  0  0  0  0  0  0  0  0  0  0  0
  -11.8304   -4.7769  -25.4888 H   0  0  0  0  0  0  0  0  0  0  0  0
  -11.1372   -3.2059  -22.1495 H   0  0  0  0  0  0  0  0  0  0  0  0
  -14.4347   -0.6229  -22.9426 H   0  0  0  0  0  0  0  0  0  0  0  0
  -12.8587    1.0519  -23.9974 H   0  0  0  0  0  0  0  0  0  0  0  0
  1  2  1  0
  2  3  1  0
  3  4  2  0
  3  5  1  0
  5  6  1  0
  6  7  1  0
  8  7  1  6
  8  9  1  0
  9 10  2  0
  9 11  1  0
 11 12  1  0
 12 13  2  0
 13 14  1  0
 14 15  2  0
 15 16  1  0
 16 17  2  0
 17 18  1  0
 18 19  2  0
 19 20  1  0
 20 21  2  0
 11 22  1  0
 22 23  1  0
 23 24  1  0
 24 25  1  0
 25 26  1  0
 26 27  1  0
 26 28  1  0
  8 29  1  0
 29 30  2  0
 30 31  1  0
 31 32  1  0
 31 33  2  0
 33 34  1  0
 34 35  2  0
 35 36  1  0
 36 37  2  0
 36  6  1  0
 23  8  1  0
 35 29  1  0
 21 12  1  0
 21 16  1  0
  1 38  1  0
  1 39  1  0
  1 40  1  0
  2 41  1  0
  5 42  1  0
  5 43  1  0
  7 44  1  0
  7 45  1  0
 13 46  1  0
 15 47  1  0
 17 48  1  0
 18 49  1  0
 19 50  1  0
 20 51  1  0
 22 52  1  0
 22 53  1  0
 23 54  1  1
 24 55  1  0
 24 56  1  0
 26 57  1  0
 27 58  1  0
 27 59  1  0
 27 60  1  0
 28 61  1  0
 28 62  1  0
 28 63  1  0
 30 64  1  0
 33 65  1  0
 34 66  1  0
M  END
$$$$

     RDKit          3D

 40 42  0  0  0  0  0  0  0  0999 V2000
   -8.5398   -0.8928  -20.8433 O   0  0  0  0  0  0  0  0  0  0  0  0
   -7.8987   -1.9209  -20.9994 C   0  0  0  0  0  0  0  0  0  0  0  0
   -6.6138   -2.2091  -20.2141 C   0  0  0  0  0  0  0  0  0  0  0  0
   -6.0365   -1.1302  -19.3049 C   0  0  0  0  0  0  0  0  0  0  0  0
   -6.2770   -1.1302  -17.9232 C   0  0  0  0  0  0  0  0  0  0  0  0
   -5.6026   -0.3654  -17.0449 N   0  0  0  0  0  0  0  0  0  0  0  0
   -4.6312    0.4255  -17.5208 C   0  0  0  0  0  0  0  0  0  0  0  0
   -4.3484    0.5407  -18.8837 C   0  0  0  0  0  0  0  0  0  0  0  0
   -3.3367    1.4016  -19.3364 C   0  0  0  0  0  0  0  0  0  0  0  0
   -3.1008    1.5362  -20.7019 C   0  0  0  0  0  0  0  0  0  0  0  0
   -3.8851    0.8267  -21.6146 C   0  0  0  0  0  0  0  0  0  0  0  0
   -4.8730   -0.0604  -21.1707 C   0  0  0  0  0  0  0  0  0  0  0  0
   -5.0995   -0.2218  -19.7973 C   0  0  0  0  0  0  0  0  0  0  0  0
   -8.2914   -2.8595  -21.9426 N   0  0  0  0  0  0  0  0  0  0  0  0
   -9.7170   -3.0203  -22.2331 C   0  0  0  0  0  0  0  0  0  0  0  0
  -10.1956   -1.8325  -23.0653 C   0  0  0  0  0  0  0  0  0  0  0  0
   -9.4037   -1.8087  -24.3861 C   0  0  0  0  0  0  0  0  0  0  0  0
   -9.9040   -0.6986  -25.3294 C   0  0  0  0  0  0  0  0  0  0  0  0
   -9.1406   -0.6941  -26.4569 F   0  0  0  0  0  0  0  0  0  0  0  0
   -9.8120    0.5013  -24.6925 F   0  0  0  0  0  0  0  0  0  0  0  0
  -11.2019   -0.9346  -25.6813 F   0  0  0  0  0  0  0  0  0  0  0  0
   -7.9065   -1.6536  -24.0196 C   0  0  0  0  0  0  0  0  0  0  0  0
   -7.4414   -2.8212  -23.1312 C   0  0  0  0  0  0  0  0  0  0  0  0
   -6.7706   -3.1144  -19.6276 H   0  0  0  0  0  0  0  0  0  0  0  0
   -5.8458   -2.4608  -20.9451 H   0  0  0  0  0  0  0  0  0  0  0  0
   -7.0454   -1.7978  -17.5647 H   0  0  0  0  0  0  0  0  0  0  0  0
   -4.0319    1.0148  -16.8321 H   0  0  0  0  0  0  0  0  0  0  0  0
   -2.7340    1.9743  -18.6378 H   0  0  0  0  0  0  0  0  0  0  0  0
   -2.3257    2.2072  -21.0620 H   0  0  0  0  0  0  0  0  0  0  0  0
   -3.7351    0.9883  -22.6721 H   0  0  0  0  0  0  0  0  0  0  0  0
   -5.4943   -0.5792  -21.8953 H   0  0  0  0  0  0  0  0  0  0  0  0
  -10.2946   -3.1084  -21.3086 H   0  0  0  0  0  0  0  0  0  0  0  0
   -9.8754   -3.9453  -22.7976 H   0  0  0  0  0  0  0  0  0  0  0  0
  -11.2688   -1.9082  -23.2641 H   0  0  0  0  0  0  0  0  0  0  0  0
  -10.0249   -0.9063  -22.5059 H   0  0  0  0  0  0  0  0  0  0  0  0
   -9.5451   -2.7671  -24.9015 H   0  0  0  0  0  0  0  0  0  0  0  0
   -7.2952   -1.6078  -24.9261 H   0  0  0  0  0  0  0  0  0  0  0  0
   -7.7609   -0.7179  -23.4639 H   0  0  0  0  0  0  0  0  0  0  0  0
   -6.3913   -2.6723  -22.8513 H   0  0  0  0  0  0  0  0  0  0  0  0
   -7.5065   -3.7650  -23.6798 H   0  0  0  0  0  0  0  0  0  0  0  0
  1  2  2  0
  2  3  1  0
  3  4  1  0
  4  5  2  0
  5  6  1  0
  6  7  2  0
  7  8  1  0
  8  9  2  0
  9 10  1  0
 10 11  2  0
 11 12  1  0
 12 13  2  0
  2 14  1  0
 14 15  1  0
 15 16  1  0
 16 17  1  0
 17 18  1  0
 18 19  1  0
 18 20  1  0
 18 21  1  0
 17 22  1  0
 22 23  1  0
 13  4  1  0
 23 14  1  0
 13  8  1  0
  3 24  1  0
  3 25  1  0
  5 26  1  0
  7 27  1  0
  9 28  1  0
 10 29  1  0
 11 30  1  0
 12 31  1  0
 15 32  1  0
 15 33  1  0
 16 34  1  0
 16 35  1  0
 17 36  1  0
 22 37  1  0
 22 38  1  0
 23 39  1  0
 23 40  1  0
M  END
$$$$

     RDKit          3D

 61 66  0  0  0  0  0  0  0  0999 V2000
   -7.0098    3.6344  -22.4891 C   0  0  0  0  0  0  0  0  0  0  0  0
   -7.7925    2.6965  -23.2720 N   0  0  0  0  0  0  0  0  0  0  0  0
   -7.5056    2.5278  -24.5796 C   0  0  0  0  0  0  0  0  0  0  0  0
   -6.7326    3.2476  -25.2030 O   0  0  0  0  0  0  0  0  0  0  0  0
   -8.1574    1.3585  -25.3184 C   0  0  0  0  0  0  0  0  0  0  0  0
   -8.9909    0.4721  -24.5494 N   0  0  0  0  0  0  0  0  0  0  0  0
   -8.5157   -0.8777  -24.2737 C   0  0  0  0  0  0  0  0  0  0  0  0
   -9.0766   -1.4194  -22.9340 C   0  0  2  0  0  0  0  0  0  0  0  0
   -8.4709   -0.5753  -21.7850 C   0  0  0  0  0  0  0  0  0  0  0  0
   -8.7706    0.5680  -21.5046 O   0  0  0  0  0  0  0  0  0  0  0  0
   -7.5018   -1.3160  -21.1494 N   0  0  0  0  0  0  0  0  0  0  0  0
   -6.6550   -0.7989  -20.1275 C   0  0  0  0  0  0  0  0  0  0  0  0
   -6.8889   -1.1489  -18.8207 C   0  0  0  0  0  0  0  0  0  0  0  0
   -6.1297   -0.7509  -17.7704 N   0  0  0  0  0  0  0  0  0  0  0  0
   -5.1047    0.0285  -18.0124 C   0  0  0  0  0  0  0  0  0  0  0  0
   -4.7548    0.4825  -19.3164 C   0  0  0  0  0  0  0  0  0  0  0  0
   -3.6671    1.3682  -19.5325 C   0  0  0  0  0  0  0  0  0  0  0  0
   -3.3263    1.7612  -20.7951 C   0  0  0  0  0  0  0  0  0  0  0  0
   -4.0596    1.2864  -21.9036 C   0  0  0  0  0  0  0  0  0  0  0  0
   -5.1412    0.4589  -21.7224 C   0  0  0  0  0  0  0  0  0  0  0  0
   -5.5305    0.0425  -20.4182 C   0  0  0  0  0  0  0  0  0  0  0  0
   -7.2382   -2.5779  -21.8165 C   0  0  0  0  0  0  0  0  0  0  0  0
   -8.5556   -2.8342  -22.5575 C   0  0  2  0  0  0  0  0  0  0  0  0
   -8.4200   -3.8706  -23.6807 C   0  0  0  0  0  0  0  0  0  0  0  0
   -9.7041   -4.2659  -24.2439 N   0  0  0  0  0  0  0  0  0  0  0  0
  -10.5004   -5.1496  -23.6700 N   0  0  0  0  0  0  0  0  0  0  0  0
  -11.5505   -5.1200  -24.4803 C   0  0  0  0  0  0  0  0  0  0  0  0
  -11.3956   -4.2531  -25.5014 N   0  0  0  0  0  0  0  0  0  0  0  0
  -10.2136   -3.7204  -25.3286 N   0  0  0  0  0  0  0  0  0  0  0  0
  -10.5831   -1.2775  -23.0318 C   0  0  0  0  0  0  0  0  0  0  0  0
  -11.4705   -2.2158  -22.5039 C   0  0  0  0  0  0  0  0  0  0  0  0
  -12.8288   -1.9568  -22.4725 C   0  0  0  0  0  0  0  0  0  0  0  0
  -13.8595   -3.1052  -21.6558 Cl  0  0  0  0  0  0  0  0  0  0  0  0
  -13.3703   -0.7919  -23.0147 C   0  0  0  0  0  0  0  0  0  0  0  0
  -12.5053    0.1188  -23.5921 C   0  0  0  0  0  0  0  0  0  0  0  0
  -11.1345   -0.1304  -23.6190 C   0  0  0  0  0  0  0  0  0  0  0  0
  -10.2613    0.8880  -24.2653 C   0  0  0  0  0  0  0  0  0  0  0  0
  -10.6493    2.0305  -24.4984 O   0  0  0  0  0  0  0  0  0  0  0  0
   -7.3088    4.6765  -22.6470 H   0  0  0  0  0  0  0  0  0  0  0  0
   -7.1408    3.3840  -21.4324 H   0  0  0  0  0  0  0  0  0  0  0  0
   -5.9485    3.5511  -22.7457 H   0  0  0  0  0  0  0  0  0  0  0  0
   -8.3484    2.0086  -22.7564 H   0  0  0  0  0  0  0  0  0  0  0  0
   -8.7338    1.7828  -26.1436 H   0  0  0  0  0  0  0  0  0  0  0  0
   -7.3411    0.7816  -25.7641 H   0  0  0  0  0  0  0  0  0  0  0  0
   -7.4207   -0.8592  -24.2216 H   0  0  0  0  0  0  0  0  0  0  0  0
   -8.8200   -1.5516  -25.0848 H   0  0  0  0  0  0  0  0  0  0  0  0
   -7.7564   -1.7572  -18.5676 H   0  0  0  0  0  0  0  0  0  0  0  0
   -4.5126    0.3687  -17.1589 H   0  0  0  0  0  0  0  0  0  0  0  0
   -3.1205    1.7314  -18.6681 H   0  0  0  0  0  0  0  0  0  0  0  0
   -2.5012    2.4493  -20.9552 H   0  0  0  0  0  0  0  0  0  0  0  0
   -3.7856    1.6054  -22.9045 H   0  0  0  0  0  0  0  0  0  0  0  0
   -5.7080    0.1188  -22.5845 H   0  0  0  0  0  0  0  0  0  0  0  0
   -6.9817   -3.3503  -21.0848 H   0  0  0  0  0  0  0  0  0  0  0  0
   -6.3995   -2.4954  -22.5284 H   0  0  0  0  0  0  0  0  0  0  0  0
   -9.2519   -3.2258  -21.8135 H   0  0  0  0  0  0  0  0  0  0  0  0
   -7.8244   -3.4741  -24.5025 H   0  0  0  0  0  0  0  0  0  0  0  0
   -7.9394   -4.7860  -23.3315 H   0  0  0  0  0  0  0  0  0  0  0  0
  -12.4490   -5.6975  -24.3207 H   0  0  0  0  0  0  0  0  0  0  0  0
  -11.1206   -3.1369  -22.0574 H   0  0  0  0  0  0  0  0  0  0  0  0
  -14.4381   -0.6038  -22.9355 H   0  0  0  0  0  0  0  0  0  0  0  0
  -12.8718    1.0533  -24.0089 H   0  0  0  0  0  0  0  0  0  0  0  0
  1  2  1  0
  2  3  1  0
  3  4  2  0
  3  5  1  0
  5  6  1  0
  6  7  1  0
  8  7  1  6
  8  9  1  0
  9 10  2  0
  9 11  1  0
 11 12  1  0
 12 13  2  0
 13 14  1  0
 14 15  2  0
 15 16  1  0
 16 17  2  0
 17 18  1  0
 18 19  2  0
 19 20  1  0
 20 21  2  0
 11 22  1  0
 22 23  1  0
 23 24  1  0
 24 25  1  0
 25 26  1  0
 26 27  2  0
 27 28  1  0
 28 29  2  0
  8 30  1  0
 30 31  2  0
 31 32  1  0
 32 33  1  0
 32 34  2  0
 34 35  1  0
 35 36  2  0
 36 37  1  0
 37 38  2  0
 37  6  1  0
 23  8  1  0
 29 25  1  0
 36 30  1  0
 21 12  1  0
 21 16  1  0
  1 39  1  0
  1 40  1  0
  1 41  1  0
  2 42  1  0
  5 43  1  0
  5 44  1  0
  7 45  1  0
  7 46  1  0
 13 47  1  0
 15 48  1  0
 17 49  1  0
 18 50  1  0
 19 51  1  0
 20 52  1  0
 22 53  1  0
 22 54  1  0
 23 55  1  1
 24 56  1  0
 24 57  1  0
 27 58  1  0
 31 59  1  0
 34 60  1  0
 35 61  1  0
M  END
$$$$

     RDKit          3D

 57 61  0  0  0  0  0  0  0  0999 V2000
   -7.0244    3.6305  -22.4811 C   0  0  0  0  0  0  0  0  0  0  0  0
   -7.7859    2.6746  -23.2593 N   0  0  0  0  0  0  0  0  0  0  0  0
   -7.4894    2.5129  -24.5668 C   0  0  0  0  0  0  0  0  0  0  0  0
   -6.7206    3.2409  -25.1812 O   0  0  0  0  0  0  0  0  0  0  0  0
   -8.1592    1.3583  -25.3226 C   0  0  0  0  0  0  0  0  0  0  0  0
   -8.9818    0.4548  -24.5603 N   0  0  0  0  0  0  0  0  0  0  0  0
   -8.5029   -0.8879  -24.2849 C   0  0  0  0  0  0  0  0  0  0  0  0
   -9.0726   -1.4195  -22.9457 C   0  0  2  0  0  0  0  0  0  0  0  0
   -8.4738   -0.5707  -21.7893 C   0  0  0  0  0  0  0  0  0  0  0  0
   -8.7658    0.5807  -21.5193 O   0  0  0  0  0  0  0  0  0  0  0  0
   -7.5108   -1.3087  -21.1441 N   0  0  0  0  0  0  0  0  0  0  0  0
   -6.6591   -0.7895  -20.1250 C   0  0  0  0  0  0  0  0  0  0  0  0
   -6.8836   -1.1543  -18.8196 C   0  0  0  0  0  0  0  0  0  0  0  0
   -6.1096   -0.7787  -17.7712 N   0  0  0  0  0  0  0  0  0  0  0  0
   -5.0838   -0.0036  -18.0206 C   0  0  0  0  0  0  0  0  0  0  0  0
   -4.7399    0.4636  -19.3210 C   0  0  0  0  0  0  0  0  0  0  0  0
   -3.6576    1.3593  -19.5291 C   0  0  0  0  0  0  0  0  0  0  0  0
   -3.3267    1.7594  -20.7923 C   0  0  0  0  0  0  0  0  0  0  0  0
   -4.0549    1.2870  -21.9059 C   0  0  0  0  0  0  0  0  0  0  0  0
   -5.1370    0.4582  -21.7273 C   0  0  0  0  0  0  0  0  0  0  0  0
   -5.5272    0.0425  -20.4219 C   0  0  0  0  0  0  0  0  0  0  0  0
   -7.2280   -2.5611  -21.8217 C   0  0  0  0  0  0  0  0  0  0  0  0
   -8.5381   -2.8254  -22.5667 C   0  0  2  0  0  0  0  0  0  0  0  0
   -8.3945   -3.8472  -23.6921 C   0  0  0  0  0  0  0  0  0  0  0  0
   -9.6251   -4.2161  -24.2806 O   0  0  0  0  0  0  0  0  0  0  0  0
  -10.5812   -1.3118  -23.0506 C   0  0  0  0  0  0  0  0  0  0  0  0
  -11.4734   -2.2789  -22.5719 C   0  0  0  0  0  0  0  0  0  0  0  0
  -12.8281   -1.9987  -22.5248 C   0  0  0  0  0  0  0  0  0  0  0  0
  -13.8835   -3.1425  -21.7394 Cl  0  0  0  0  0  0  0  0  0  0  0  0
  -13.3607   -0.8131  -23.0324 C   0  0  0  0  0  0  0  0  0  0  0  0
  -12.4951    0.1027  -23.5943 C   0  0  0  0  0  0  0  0  0  0  0  0
  -11.1269   -0.1525  -23.6191 C   0  0  0  0  0  0  0  0  0  0  0  0
  -10.2465    0.8710  -24.2535 C   0  0  0  0  0  0  0  0  0  0  0  0
  -10.6298    2.0138  -24.4728 O   0  0  0  0  0  0  0  0  0  0  0  0
   -7.1485    3.3879  -21.4203 H   0  0  0  0  0  0  0  0  0  0  0  0
   -5.9645    3.5542  -22.7463 H   0  0  0  0  0  0  0  0  0  0  0  0
   -7.3269    4.6733  -22.6491 H   0  0  0  0  0  0  0  0  0  0  0  0
   -8.2934    1.9611  -22.7353 H   0  0  0  0  0  0  0  0  0  0  0  0
   -8.7476    1.8031  -26.1302 H   0  0  0  0  0  0  0  0  0  0  0  0
   -7.3482    0.7968  -25.7914 H   0  0  0  0  0  0  0  0  0  0  0  0
   -8.7905   -1.5673  -25.0996 H   0  0  0  0  0  0  0  0  0  0  0  0
   -7.4090   -0.8622  -24.2362 H   0  0  0  0  0  0  0  0  0  0  0  0
   -7.7420   -1.7787  -18.5745 H   0  0  0  0  0  0  0  0  0  0  0  0
   -4.4719    0.3154  -17.1754 H   0  0  0  0  0  0  0  0  0  0  0  0
   -3.1064    1.7144  -18.6622 H   0  0  0  0  0  0  0  0  0  0  0  0
   -2.5030    2.4471  -20.9503 H   0  0  0  0  0  0  0  0  0  0  0  0
   -3.7825    1.6114  -22.9071 H   0  0  0  0  0  0  0  0  0  0  0  0
   -5.7040    0.1267  -22.5925 H   0  0  0  0  0  0  0  0  0  0  0  0
   -6.9820   -3.3291  -21.0827 H   0  0  0  0  0  0  0  0  0  0  0  0
   -6.3774   -2.4672  -22.5217 H   0  0  0  0  0  0  0  0  0  0  0  0
   -9.2254   -3.2256  -21.8156 H   0  0  0  0  0  0  0  0  0  0  0  0
   -7.6839   -3.4719  -24.4464 H   0  0  0  0  0  0  0  0  0  0  0  0
   -7.9683   -4.7756  -23.2970 H   0  0  0  0  0  0  0  0  0  0  0  0
  -10.0504   -3.4282  -24.6428 H   0  0  0  0  0  0  0  0  0  0  0  0
  -11.1423   -3.2510  -22.2168 H   0  0  0  0  0  0  0  0  0  0  0  0
  -14.4272   -0.6268  -22.9678 H   0  0  0  0  0  0  0  0  0  0  0  0
  -12.8579    1.0427  -23.9957 H   0  0  0  0  0  0  0  0  0  0  0  0
  1  2  1  0
  2  3  1  0
  3  4  2  0
  3  5  1  0
  5  6  1  0
  6  7  1  0
  8  7  1  6
  8  9  1  0
  9 10  2  0
  9 11  1  0
 11 12  1  0
 12 13  2  0
 13 14  1  0
 14 15  2  0
 15 16  1  0
 16 17  2  0
 17 18  1  0
 18 19  2  0
 19 20  1  0
 20 21  2  0
 11 22  1  0
 22 23  1  0
 23 24  1  0
 24 25  1  0
  8 26  1  0
 26 27  2  0
 27 28  1  0
 28 29  1  0
 28 30  2  0
 30 31  1  0
 31 32  2  0
 32 33  1  0
 33 34  2  0
 33  6  1  0
 23  8  1  0
 32 26  1  0
 21 12  1  0
 21 16  1  0
  1 35  1  0
  1 36  1  0
  1 37  1  0
  2 38  1  0
  5 39  1  0
  5 40  1  0
  7 41  1  0
  7 42  1  0
 13 43  1  0
 15 44  1  0
 17 45  1  0
 18 46  1  0
 19 47  1  0
 20 48  1  0
 22 49  1  0
 22 50  1  0
 23 51  1  1
 24 52  1  0
 24 53  1  0
 25 54  1  0
 27 55  1  0
 30 56  1  0
 31 57  1  0
M  END
$$$$

     RDKit          3D

 41 43  0  0  0  0  0  0  0  0999 V2000
  -12.8759   -3.7089  -23.8163 C   0  0  0  0  0  0  0  0  0  0  0  0
  -11.6563   -2.7953  -23.8654 C   0  0  1  0  0  0  0  0  0  0  0  0
  -12.0194   -1.3977  -23.4117 C   0  0  0  0  0  0  0  0  0  0  0  0
  -11.1939   -0.3559  -23.4365 C   0  0  0  0  0  0  0  0  0  0  0  0
   -9.7558   -0.4685  -23.8846 C   0  0  0  0  0  0  0  0  0  0  0  0
   -8.9290   -1.4222  -23.1383 N   0  0  0  0  0  0  0  0  0  0  0  0
   -8.4867   -0.9911  -21.9037 C   0  0  0  0  0  0  0  0  0  0  0  0
   -8.9889   -0.0190  -21.3793 O   0  0  0  0  0  0  0  0  0  0  0  0
   -7.3010   -1.7579  -21.3022 C   0  0  0  0  0  0  0  0  0  0  0  0
   -6.5247   -1.0272  -20.2344 C   0  0  0  0  0  0  0  0  0  0  0  0
   -6.8935   -1.1808  -18.9211 C   0  0  0  0  0  0  0  0  0  0  0  0
   -6.2624   -0.6447  -17.8459 N   0  0  0  0  0  0  0  0  0  0  0  0
   -5.2094    0.0995  -18.0869 C   0  0  0  0  0  0  0  0  0  0  0  0
   -4.7150    0.3775  -19.3931 C   0  0  0  0  0  0  0  0  0  0  0  0
   -3.5743    1.2012  -19.5994 C   0  0  0  0  0  0  0  0  0  0  0  0
   -3.0884    1.4115  -20.8620 C   0  0  0  0  0  0  0  0  0  0  0  0
   -3.7348    0.8229  -21.9715 C   0  0  0  0  0  0  0  0  0  0  0  0
   -4.8546    0.0415  -21.8021 C   0  0  0  0  0  0  0  0  0  0  0  0
   -5.3812   -0.2081  -20.5028 C   0  0  0  0  0  0  0  0  0  0  0  0
   -9.1121   -2.8342  -23.4406 C   0  0  0  0  0  0  0  0  0  0  0  0
  -10.4841   -3.4039  -23.0702 C   0  0  0  0  0  0  0  0  0  0  0  0
  -12.6480   -4.7011  -24.2198 H   0  0  0  0  0  0  0  0  0  0  0  0
  -13.7034   -3.2897  -24.3981 H   0  0  0  0  0  0  0  0  0  0  0  0
  -13.2161   -3.8369  -22.7834 H   0  0  0  0  0  0  0  0  0  0  0  0
  -11.3323   -2.7320  -24.9139 H   0  0  0  0  0  0  0  0  0  0  0  0
  -13.0223   -1.2427  -23.0162 H   0  0  0  0  0  0  0  0  0  0  0  0
  -11.5311    0.6214  -23.0887 H   0  0  0  0  0  0  0  0  0  0  0  0
   -9.7167   -0.7839  -24.9301 H   0  0  0  0  0  0  0  0  0  0  0  0
   -9.2720    0.5085  -23.8330 H   0  0  0  0  0  0  0  0  0  0  0  0
   -7.6835   -2.6902  -20.8621 H   0  0  0  0  0  0  0  0  0  0  0  0
   -6.6392   -2.0510  -22.1245 H   0  0  0  0  0  0  0  0  0  0  0  0
   -7.7606   -1.7997  -18.6929 H   0  0  0  0  0  0  0  0  0  0  0  0
   -4.7423    0.5800  -17.2284 H   0  0  0  0  0  0  0  0  0  0  0  0
   -3.0914    1.6561  -18.7373 H   0  0  0  0  0  0  0  0  0  0  0  0
   -2.2084    2.0319  -21.0181 H   0  0  0  0  0  0  0  0  0  0  0  0
   -3.3406    0.9962  -22.9699 H   0  0  0  0  0  0  0  0  0  0  0  0
   -5.3399   -0.3920  -22.6725 H   0  0  0  0  0  0  0  0  0  0  0  0
   -8.3197   -3.4020  -22.9436 H   0  0  0  0  0  0  0  0  0  0  0  0
   -8.9613   -2.9448  -24.5160 H   0  0  0  0  0  0  0  0  0  0  0  0
  -10.4592   -4.4917  -23.2258 H   0  0  0  0  0  0  0  0  0  0  0  0
  -10.6637   -3.2549  -22.0005 H   0  0  0  0  0  0  0  0  0  0  0  0
  1  2  1  0
  2  3  1  0
  3  4  2  0
  4  5  1  0
  5  6  1  0
  6  7  1  0
  7  8  2  0
  7  9  1  0
  9 10  1  0
 10 11  2  0
 11 12  1  0
 12 13  2  0
 13 14  1  0
 14 15  2  0
 15 16  1  0
 16 17  2  0
 17 18  1  0
 18 19  2  0
  6 20  1  0
 20 21  1  0
 21  2  1  0
 19 10  1  0
 19 14  1  0
  1 22  1  0
  1 23  1  0
  1 24  1  0
  2 25  1  6
  3 26  1  0
  4 27  1  0
  5 28  1  0
  5 29  1  0
  9 30  1  0
  9 31  1  0
 11 32  1  0
 13 33  1  0
 15 34  1  0
 16 35  1  0
 17 36  1  0
 18 37  1  0
 20 38  1  0
 20 39  1  0
 21 40  1  0
 21 41  1  0
M  END
$$$$

     RDKit          3D

 63 67  0  0  0  0  0  0  0  0999 V2000
   -9.6732   -6.1224  -29.5151 C   0  0  0  0  0  0  0  0  0  0  0  0
   -9.1247   -5.6673  -28.3978 C   0  0  0  0  0  0  0  0  0  0  0  0
   -9.8233   -5.7683  -27.0877 C   0  0  0  0  0  0  0  0  0  0  0  0
  -10.2977   -6.7937  -26.6646 O   0  0  0  0  0  0  0  0  0  0  0  0
   -9.9830   -4.5301  -26.3941 N   0  0  0  0  0  0  0  0  0  0  0  0
  -10.8473   -3.5445  -27.0443 C   0  0  0  0  0  0  0  0  0  0  0  0
  -11.3821   -2.5169  -26.0369 C   0  0  0  0  0  0  0  0  0  0  0  0
  -10.6440   -2.5311  -24.7072 C   0  0  0  0  0  0  0  0  0  0  0  0
   -9.2023   -2.9303  -24.8179 C   0  0  0  0  0  0  0  0  0  0  0  0
   -8.9272   -4.0468  -25.6098 C   0  0  0  0  0  0  0  0  0  0  0  0
   -7.6761   -4.6649  -25.5402 C   0  0  0  0  0  0  0  0  0  0  0  0
   -6.6670   -4.0734  -24.7938 C   0  0  0  0  0  0  0  0  0  0  0  0
   -6.9066   -2.9080  -24.0725 C   0  0  0  0  0  0  0  0  0  0  0  0
   -8.1880   -2.3573  -24.0354 C   0  0  0  0  0  0  0  0  0  0  0  0
   -8.5184   -1.2242  -23.2513 N   0  0  2  0  0  0  0  0  0  0  0  0
  -10.0043    0.9508  -23.8752 C   0  0  0  0  0  0  0  0  0  0  0  0
  -11.3664    0.7262  -23.3543 C   0  0  0  0  0  0  0  0  0  0  0  0
  -12.3368    1.7042  -23.5797 C   0  0  0  0  0  0  0  0  0  0  0  0
  -13.6848    1.3982  -23.4662 C   0  0  0  0  0  0  0  0  0  0  0  0
  -14.1016    0.1113  -23.1494 C   0  0  0  0  0  0  0  0  0  0  0  0
  -13.1282   -0.8213  -22.8340 C   0  0  0  0  0  0  0  0  0  0  0  0
  -13.6200   -2.4718  -22.5658 Cl  0  0  0  0  0  0  0  0  0  0  0  0
  -11.7871   -0.4759  -22.7714 C   0  0  0  0  0  0  0  0  0  0  0  0
   -8.1993   -0.9313  -21.9484 C   0  0  0  0  0  0  0  0  0  0  0  0
   -8.5206    0.1375  -21.4594 O   0  0  0  0  0  0  0  0  0  0  0  0
   -7.5270   -1.9765  -21.0786 C   0  0  0  0  0  0  0  0  0  0  0  0
   -6.6267   -1.3423  -20.0511 C   0  0  0  0  0  0  0  0  0  0  0  0
   -6.8328   -1.6211  -18.7269 C   0  0  0  0  0  0  0  0  0  0  0  0
   -6.1096   -1.1221  -17.6974 N   0  0  0  0  0  0  0  0  0  0  0  0
   -5.1413   -0.2943  -17.9968 C   0  0  0  0  0  0  0  0  0  0  0  0
   -4.8213    0.1016  -19.3217 C   0  0  0  0  0  0  0  0  0  0  0  0
   -3.7914    1.0407  -19.5784 C   0  0  0  0  0  0  0  0  0  0  0  0
   -3.4667    1.3838  -20.8613 C   0  0  0  0  0  0  0  0  0  0  0  0
   -4.1765    0.8068  -21.9396 C   0  0  0  0  0  0  0  0  0  0  0  0
   -5.2045   -0.0748  -21.7186 C   0  0  0  0  0  0  0  0  0  0  0  0
   -5.5691   -0.4482  -20.3916 C   0  0  0  0  0  0  0  0  0  0  0  0
  -10.6196   -6.6583  -29.5116 H   0  0  0  0  0  0  0  0  0  0  0  0
   -9.1670   -6.0124  -30.4709 H   0  0  0  0  0  0  0  0  0  0  0  0
   -8.1681   -5.1478  -28.4190 H   0  0  0  0  0  0  0  0  0  0  0  0
  -11.6681   -4.0921  -27.5165 H   0  0  0  0  0  0  0  0  0  0  0  0
  -10.2942   -3.0350  -27.8465 H   0  0  0  0  0  0  0  0  0  0  0  0
  -12.4507   -2.6684  -25.8589 H   0  0  0  0  0  0  0  0  0  0  0  0
  -11.2557   -1.5113  -26.4424 H   0  0  0  0  0  0  0  0  0  0  0  0
  -10.7069   -1.5228  -24.3264 H   0  0  0  0  0  0  0  0  0  0  0  0
  -11.1529   -3.2100  -24.0070 H   0  0  0  0  0  0  0  0  0  0  0  0
   -7.4860   -5.6015  -26.0505 H   0  0  0  0  0  0  0  0  0  0  0  0
   -5.6894   -4.5459  -24.7482 H   0  0  0  0  0  0  0  0  0  0  0  0
   -6.0863   -2.4606  -23.5144 H   0  0  0  0  0  0  0  0  0  0  0  0
   -9.1831   -0.5083  -23.6219 H   0  0  0  0  0  0  0  0  0  0  0  0
   -9.8989    0.8927  -24.9576 H   0  0  0  0  0  0  0  0  0  0  0  0
   -9.4352    1.7665  -23.4343 H   0  0  0  0  0  0  0  0  0  0  0  0
  -12.0321    2.7062  -23.8671 H   0  0  0  0  0  0  0  0  0  0  0  0
  -14.4102    2.1751  -23.6687 H   0  0  0  0  0  0  0  0  0  0  0  0
  -15.1424   -0.1896  -23.1154 H   0  0  0  0  0  0  0  0  0  0  0  0
  -11.0703   -1.1703  -22.3466 H   0  0  0  0  0  0  0  0  0  0  0  0
   -8.3463   -2.4847  -20.5569 H   0  0  0  0  0  0  0  0  0  0  0  0
   -7.0216   -2.7591  -21.6469 H   0  0  0  0  0  0  0  0  0  0  0  0
   -7.6381   -2.2960  -18.4352 H   0  0  0  0  0  0  0  0  0  0  0  0
   -4.5629    0.1134  -17.1668 H   0  0  0  0  0  0  0  0  0  0  0  0
   -3.2770    1.4833  -18.7293 H   0  0  0  0  0  0  0  0  0  0  0  0
   -2.6769    2.1042  -21.0567 H   0  0  0  0  0  0  0  0  0  0  0  0
   -3.9089    1.0769  -22.9564 H   0  0  0  0  0  0  0  0  0  0  0  0
   -5.7564   -0.4664  -22.5689 H   0  0  0  0  0  0  0  0  0  0  0  0
  1  2  2  0
  2  3  1  0
  3  4  2  0
  3  5  1  0
  5  6  1  0
  6  7  1  0
  7  8  1  0
  8  9  1  0
  9 10  2  0
 10 11  1  0
 11 12  2  0
 12 13  1  0
 13 14  2  0
 14 15  1  0
 15 16  1  0
 16 17  1  0
 17 18  2  0
 18 19  1  0
 19 20  2  0
 20 21  1  0
 21 22  1  0
 21 23  2  0
 15 24  1  0
 24 25  2  0
 24 26  1  0
 26 27  1  0
 27 28  2  0
 28 29  1  0
 29 30  2  0
 30 31  1  0
 31 32  2  0
 32 33  1  0
 33 34  2  0
 34 35  1  0
 35 36  2  0
 10  5  1  0
 23 17  1  0
 36 27  1  0
 14  9  1  0
 36 31  1  0
  1 37  1  0
  1 38  1  0
  2 39  1  0
  6 40  1  0
  6 41  1  0
  7 42  1  0
  7 43  1  0
  8 44  1  0
  8 45  1  0
 11 46  1  0
 12 47  1  0
 13 48  1  0
 15 49  1  1
 16 50  1  0
 16 51  1  0
 18 52  1  0
 19 53  1  0
 20 54  1  0
 23 55  1  0
 26 56  1  0
 26 57  1  0
 28 58  1  0
 30 59  1  0
 32 60  1  0
 33 61  1  0
 34 62  1  0
 35 63  1  0
M  CHG  1  15   1
M  END
$$$$

     RDKit          3D

 59 64  0  0  0  0  0  0  0  0999 V2000
   -8.4239   -3.8270  -23.7056 C   0  0  0  0  0  0  0  0  0  0  0  0
   -8.5299   -2.8342  -22.5574 C   0  0  1  0  0  0  0  0  0  0  0  0
   -7.2145   -2.5836  -21.8099 C   0  0  0  0  0  0  0  0  0  0  0  0
   -7.4939   -1.3379  -21.1270 N   0  0  0  0  0  0  0  0  0  0  0  0
   -6.6428   -0.8204  -20.1144 C   0  0  0  0  0  0  0  0  0  0  0  0
   -6.8727   -1.1692  -18.8064 C   0  0  0  0  0  0  0  0  0  0  0  0
   -6.0997   -0.7854  -17.7601 N   0  0  0  0  0  0  0  0  0  0  0  0
   -5.0727   -0.0122  -18.0130 C   0  0  0  0  0  0  0  0  0  0  0  0
   -4.7358    0.4508  -19.3163 C   0  0  0  0  0  0  0  0  0  0  0  0
   -3.6590    1.3517  -19.5266 C   0  0  0  0  0  0  0  0  0  0  0  0
   -3.3373    1.7602  -20.7894 C   0  0  0  0  0  0  0  0  0  0  0  0
   -4.0698    1.2900  -21.9003 C   0  0  0  0  0  0  0  0  0  0  0  0
   -5.1400    0.4471  -21.7200 C   0  0  0  0  0  0  0  0  0  0  0  0
   -5.5174    0.0194  -20.4143 C   0  0  0  0  0  0  0  0  0  0  0  0
   -8.4637   -0.5840  -21.7630 C   0  0  0  0  0  0  0  0  0  0  0  0
   -8.7659    0.5449  -21.4594 O   0  0  0  0  0  0  0  0  0  0  0  0
   -9.0592   -1.4244  -22.9236 C   0  0  1  0  0  0  0  0  0  0  0  0
   -8.5081   -0.8932  -24.2728 C   0  0  0  0  0  0  0  0  0  0  0  0
   -8.9306    0.4717  -24.5044 N   0  0  0  0  0  0  0  0  0  0  0  0
   -8.0685    1.3576  -25.2545 C   0  0  0  0  0  0  0  0  0  0  0  0
   -8.2670    1.2557  -26.7482 C   0  0  0  0  0  0  0  0  0  0  0  0
   -8.2342    0.1691  -27.6032 C   0  0  0  0  0  0  0  0  0  0  0  0
   -8.4899    0.7150  -28.8751 C   0  0  0  0  0  0  0  0  0  0  0  0
   -8.6846    2.0197  -28.8236 N   0  0  0  0  0  0  0  0  0  0  0  0
   -8.5357    2.3399  -27.5290 N   0  0  0  0  0  0  0  0  0  0  0  0
   -8.9225    3.6685  -27.0987 C   0  0  0  0  0  0  0  0  0  0  0  0
  -10.1978    0.8971  -24.2253 C   0  0  0  0  0  0  0  0  0  0  0  0
  -10.5865    2.0372  -24.4482 O   0  0  0  0  0  0  0  0  0  0  0  0
  -11.0973   -0.1311  -23.6130 C   0  0  0  0  0  0  0  0  0  0  0  0
  -12.4660    0.1347  -23.5973 C   0  0  0  0  0  0  0  0  0  0  0  0
  -13.3466   -0.7792  -23.0545 C   0  0  0  0  0  0  0  0  0  0  0  0
  -12.8180   -1.9672  -22.5609 C   0  0  0  0  0  0  0  0  0  0  0  0
  -13.6631   -2.8614  -22.0185 F   0  0  0  0  0  0  0  0  0  0  0  0
  -11.4685   -2.2625  -22.5732 C   0  0  0  0  0  0  0  0  0  0  0  0
  -10.5670   -1.2973  -23.0373 C   0  0  0  0  0  0  0  0  0  0  0  0
   -8.1273   -4.8246  -23.3648 H   0  0  0  0  0  0  0  0  0  0  0  0
   -9.3808   -3.9213  -24.2280 H   0  0  0  0  0  0  0  0  0  0  0  0
   -7.6787   -3.5042  -24.4401 H   0  0  0  0  0  0  0  0  0  0  0  0
   -9.2109   -3.2352  -21.7971 H   0  0  0  0  0  0  0  0  0  0  0  0
   -6.9738   -3.3612  -21.0787 H   0  0  0  0  0  0  0  0  0  0  0  0
   -6.3572   -2.4894  -22.5018 H   0  0  0  0  0  0  0  0  0  0  0  0
   -7.7392   -1.7804  -18.5560 H   0  0  0  0  0  0  0  0  0  0  0  0
   -4.4499    0.3040  -17.1735 H   0  0  0  0  0  0  0  0  0  0  0  0
   -3.1048    1.7053  -18.6612 H   0  0  0  0  0  0  0  0  0  0  0  0
   -2.5177    2.4538  -20.9468 H   0  0  0  0  0  0  0  0  0  0  0  0
   -3.7914    1.6077  -22.9000 H   0  0  0  0  0  0  0  0  0  0  0  0
   -5.7126    0.1166  -22.5823 H   0  0  0  0  0  0  0  0  0  0  0  0
   -8.8615   -1.5489  -25.0838 H   0  0  0  0  0  0  0  0  0  0  0  0
   -7.4147   -0.9289  -24.2554 H   0  0  0  0  0  0  0  0  0  0  0  0
   -7.0353    1.1153  -24.9685 H   0  0  0  0  0  0  0  0  0  0  0  0
   -8.2751    2.3674  -24.8856 H   0  0  0  0  0  0  0  0  0  0  0  0
   -8.0594   -0.8648  -27.3254 H   0  0  0  0  0  0  0  0  0  0  0  0
   -8.5476    0.2437  -29.8479 H   0  0  0  0  0  0  0  0  0  0  0  0
   -8.0685    4.2477  -26.7364 H   0  0  0  0  0  0  0  0  0  0  0  0
   -9.3270    4.1638  -27.9791 H   0  0  0  0  0  0  0  0  0  0  0  0
   -9.6894    3.6082  -26.3223 H   0  0  0  0  0  0  0  0  0  0  0  0
  -12.8179    1.0808  -23.9938 H   0  0  0  0  0  0  0  0  0  0  0  0
  -14.4195   -0.6121  -23.0011 H   0  0  0  0  0  0  0  0  0  0  0  0
  -11.1567   -3.2318  -22.1982 H   0  0  0  0  0  0  0  0  0  0  0  0
  1  2  1  0
  2  3  1  0
  3  4  1  0
  4  5  1  0
  5  6  2  0
  6  7  1  0
  7  8  2  0
  8  9  1  0
  9 10  2  0
 10 11  1  0
 11 12  2  0
 12 13  1  0
 13 14  2  0
  4 15  1  0
 15 16  2  0
 15 17  1  0
 17 18  1  6
 18 19  1  0
 19 20  1  0
 20 21  1  0
 21 22  2  0
 22 23  1  0
 23 24  2  0
 24 25  1  0
 25 26  1  0
 19 27  1  0
 27 28  2  0
 27 29  1  0
 29 30  2  0
 30 31  1  0
 31 32  2  0
 32 33  1  0
 32 34  1  0
 34 35  2  0
 17  2  1  0
 25 21  1  0
 35 29  1  0
 14  5  1  0
 35 17  1  0
 14  9  1  0
  1 36  1  0
  1 37  1  0
  1 38  1  0
  2 39  1  1
  3 40  1  0
  3 41  1  0
  6 42  1  0
  8 43  1  0
 10 44  1  0
 11 45  1  0
 12 46  1  0
 13 47  1  0
 18 48  1  0
 18 49  1  0
 20 50  1  0
 20 51  1  0
 22 52  1  0
 23 53  1  0
 26 54  1  0
 26 55  1  0
 26 56  1  0
 30 57  1  0
 31 58  1  0
 34 59  1  0
M  END
$$$$

     RDKit          3D

 50 52  0  0  0  0  0  0  0  0999 V2000
   -6.7440    0.6697  -24.1192 C   0  0  0  0  0  0  0  0  0  0  0  0
   -6.7419   -0.6249  -24.4473 C   0  0  0  0  0  0  0  0  0  0  0  0
   -7.2848   -1.8216  -23.6539 C   0  0  0  0  0  0  0  0  0  0  0  0
   -8.2765   -1.5584  -22.6206 N   0  0  0  0  0  0  0  0  0  0  0  0
   -7.8322   -0.8890  -21.4796 C   0  0  0  0  0  0  0  0  0  0  0  0
   -8.2324    0.1997  -21.1369 O   0  0  0  0  0  0  0  0  0  0  0  0
   -6.8599   -1.5982  -20.7998 N   0  0  0  0  0  0  0  0  0  0  0  0
   -6.1073   -0.9946  -19.7646 C   0  0  0  0  0  0  0  0  0  0  0  0
   -6.3640   -1.2483  -18.4433 C   0  0  0  0  0  0  0  0  0  0  0  0
   -5.6941   -0.6779  -17.4075 N   0  0  0  0  0  0  0  0  0  0  0  0
   -4.7297    0.1681  -17.6982 C   0  0  0  0  0  0  0  0  0  0  0  0
   -4.3630    0.5253  -19.0325 C   0  0  0  0  0  0  0  0  0  0  0  0
   -3.3429    1.4702  -19.3343 C   0  0  0  0  0  0  0  0  0  0  0  0
   -3.0677    1.8019  -20.6337 C   0  0  0  0  0  0  0  0  0  0  0  0
   -3.7890    1.2163  -21.6969 C   0  0  0  0  0  0  0  0  0  0  0  0
   -4.7383    0.2580  -21.4422 C   0  0  0  0  0  0  0  0  0  0  0  0
   -5.0712   -0.0749  -20.0985 C   0  0  0  0  0  0  0  0  0  0  0  0
   -9.6267   -1.2970  -22.9802 C   0  0  0  0  0  0  0  0  0  0  0  0
   -9.9986   -0.1895  -23.7358 C   0  0  0  0  0  0  0  0  0  0  0  0
  -11.3430    0.0337  -24.0040 C   0  0  0  0  0  0  0  0  0  0  0  0
  -12.3156   -0.8391  -23.5302 C   0  0  0  0  0  0  0  0  0  0  0  0
  -11.9205   -1.9335  -22.7709 C   0  0  0  0  0  0  0  0  0  0  0  0
  -13.1139   -3.0455  -22.1724 Cl  0  0  0  0  0  0  0  0  0  0  0  0
  -10.5879   -2.1602  -22.4647 C   0  0  0  0  0  0  0  0  0  0  0  0
   -6.1625   -0.9859  -25.7941 C   0  0  0  0  0  0  0  0  0  0  0  0
   -6.2154   -0.2400  -26.7668 O   0  0  0  0  0  0  0  0  0  0  0  0
   -5.5744   -2.2109  -25.8330 N   0  0  0  0  0  0  0  0  0  0  0  0
   -5.1429   -2.8125  -27.0810 C   0  0  0  0  0  0  0  0  0  0  0  0
   -6.3189   -3.2803  -27.9435 C   0  0  0  0  0  0  0  0  0  0  0  0
   -6.4033    1.4184  -24.8381 H   0  0  0  0  0  0  0  0  0  0  0  0
   -7.1003    1.0293  -23.1540 H   0  0  0  0  0  0  0  0  0  0  0  0
   -6.4594   -2.3436  -23.1498 H   0  0  0  0  0  0  0  0  0  0  0  0
   -7.7361   -2.5343  -24.3485 H   0  0  0  0  0  0  0  0  0  0  0  0
   -6.8773   -2.6047  -20.8893 H   0  0  0  0  0  0  0  0  0  0  0  0
   -7.1715   -1.9298  -18.1738 H   0  0  0  0  0  0  0  0  0  0  0  0
   -4.2231    0.6488  -16.8577 H   0  0  0  0  0  0  0  0  0  0  0  0
   -2.7923    1.9376  -18.5224 H   0  0  0  0  0  0  0  0  0  0  0  0
   -2.2941    2.5253  -20.8742 H   0  0  0  0  0  0  0  0  0  0  0  0
   -3.5609    1.5239  -22.7131 H   0  0  0  0  0  0  0  0  0  0  0  0
   -5.2352   -0.2533  -22.2637 H   0  0  0  0  0  0  0  0  0  0  0  0
   -9.2455    0.5164  -24.0697 H   0  0  0  0  0  0  0  0  0  0  0  0
  -11.6323    0.9206  -24.5567 H   0  0  0  0  0  0  0  0  0  0  0  0
  -13.3699   -0.6897  -23.7454 H   0  0  0  0  0  0  0  0  0  0  0  0
  -10.2786   -2.9896  -21.8326 H   0  0  0  0  0  0  0  0  0  0  0  0
   -5.4964   -2.7472  -24.9826 H   0  0  0  0  0  0  0  0  0  0  0  0
   -4.5362   -2.0780  -27.6254 H   0  0  0  0  0  0  0  0  0  0  0  0
   -4.4996   -3.6636  -26.8300 H   0  0  0  0  0  0  0  0  0  0  0  0
   -5.9508   -3.7935  -28.8385 H   0  0  0  0  0  0  0  0  0  0  0  0
   -6.9324   -2.4245  -28.2479 H   0  0  0  0  0  0  0  0  0  0  0  0
   -6.9555   -3.9792  -27.3863 H   0  0  0  0  0  0  0  0  0  0  0  0
  1  2  2  0
  2  3  1  0
  3  4  1  0
  4  5  1  0
  5  6  2  0
  5  7  1  0
  7  8  1  0
  8  9  2  0
  9 10  1  0
 10 11  2  0
 11 12  1  0
 12 13  2  0
 13 14  1  0
 14 15  2  0
 15 16  1  0
 16 17  2  0
  4 18  1  0
 18 19  2  0
 19 20  1  0
 20 21  2  0
 21 22  1  0
 22 23  1  0
 22 24  2  0
  2 25  1  0
 25 26  2  0
 25 27  1  0
 27 28  1  0
 28 29  1  0
 17  8  1  0
 24 18  1  0
 17 12  1  0
  1 30  1  0
  1 31  1  0
  3 32  1  0
  3 33  1  0
  7 34  1  0
  9 35  1  0
 11 36  1  0
 13 37  1  0
 14 38  1  0
 15 39  1  0
 16 40  1  0
 19 41  1  0
 20 42  1  0
 21 43  1  0
 24 44  1  0
 27 45  1  0
 28 46  1  0
 28 47  1  0
 29 48  1  0
 29 49  1  0
 29 50  1  0
M  END
$$$$

     RDKit          3D

 64 68  0  0  0  0  0  0  0  0999 V2000
   -7.0026    3.6144  -22.4296 C   0  0  0  0  0  0  0  0  0  0  0  0
   -7.6271    2.6028  -23.2493 N   0  0  0  0  0  0  0  0  0  0  0  0
   -7.4258    2.5951  -24.5779 C   0  0  0  0  0  0  0  0  0  0  0  0
   -6.6848    3.3763  -25.1639 O   0  0  0  0  0  0  0  0  0  0  0  0
   -8.1805    1.5304  -25.3812 C   0  0  0  0  0  0  0  0  0  0  0  0
   -8.9966    0.6192  -24.6126 N   0  0  0  0  0  0  0  0  0  0  0  0
   -8.4584   -0.6962  -24.3287 C   0  0  0  0  0  0  0  0  0  0  0  0
   -8.9922   -1.2821  -22.9996 C   0  0  2  0  0  0  0  0  0  0  0  0
   -8.4388   -0.4775  -21.8002 C   0  0  0  0  0  0  0  0  0  0  0  0
   -8.7451    0.6592  -21.5030 O   0  0  0  0  0  0  0  0  0  0  0  0
   -7.5175   -1.2359  -21.1162 N   0  0  0  0  0  0  0  0  0  0  0  0
   -6.6566   -0.7422  -20.0993 C   0  0  0  0  0  0  0  0  0  0  0  0
   -6.8429   -1.1602  -18.8067 C   0  0  0  0  0  0  0  0  0  0  0  0
   -6.0456   -0.8204  -17.7670 N   0  0  0  0  0  0  0  0  0  0  0  0
   -5.0228   -0.0391  -18.0132 C   0  0  0  0  0  0  0  0  0  0  0  0
   -4.7083    0.4671  -19.3078 C   0  0  0  0  0  0  0  0  0  0  0  0
   -3.6062    1.3363  -19.5268 C   0  0  0  0  0  0  0  0  0  0  0  0
   -3.2906    1.7532  -20.7902 C   0  0  0  0  0  0  0  0  0  0  0  0
   -4.0477    1.3058  -21.8968 C   0  0  0  0  0  0  0  0  0  0  0  0
   -5.1337    0.4851  -21.7080 C   0  0  0  0  0  0  0  0  0  0  0  0
   -5.5184    0.0745  -20.3993 C   0  0  0  0  0  0  0  0  0  0  0  0
   -7.1695   -2.4542  -21.8010 C   0  0  0  0  0  0  0  0  0  0  0  0
   -8.3885   -2.6777  -22.7057 C   0  0  2  0  0  0  0  0  0  0  0  0
   -8.0361   -3.5580  -23.9091 C   0  0  0  0  0  0  0  0  0  0  0  0
   -8.0183   -5.2846  -23.5020 S   0  0  0  0  0  0  0  0  0  0  0  0
   -7.0061   -5.5286  -22.4844 O   0  0  0  0  0  0  0  0  0  0  0  0
   -8.0281   -6.0805  -24.7225 O   0  0  0  0  0  0  0  0  0  0  0  0
   -9.5026   -5.3677  -22.7486 N   0  0  0  0  0  0  0  0  0  0  0  0
  -10.7323   -5.3088  -23.5261 C   0  0  0  0  0  0  0  0  0  0  0  0
  -10.5106   -1.1989  -23.0640 C   0  0  0  0  0  0  0  0  0  0  0  0
  -11.3619   -2.1827  -22.5523 C   0  0  0  0  0  0  0  0  0  0  0  0
  -12.7370   -2.0093  -22.5884 C   0  0  0  0  0  0  0  0  0  0  0  0
  -13.7805   -3.2528  -21.9482 Cl  0  0  0  0  0  0  0  0  0  0  0  0
  -13.3172   -0.8539  -23.1008 C   0  0  0  0  0  0  0  0  0  0  0  0
  -12.4858    0.1219  -23.6092 C   0  0  0  0  0  0  0  0  0  0  0  0
  -11.1042   -0.0573  -23.6202 C   0  0  0  0  0  0  0  0  0  0  0  0
  -10.2709    0.9968  -24.2844 C   0  0  0  0  0  0  0  0  0  0  0  0
  -10.7029    2.1166  -24.5267 O   0  0  0  0  0  0  0  0  0  0  0  0
   -7.4195    4.6068  -22.6340 H   0  0  0  0  0  0  0  0  0  0  0  0
   -5.9256    3.6561  -22.6263 H   0  0  0  0  0  0  0  0  0  0  0  0
   -7.1685    3.3581  -21.3791 H   0  0  0  0  0  0  0  0  0  0  0  0
   -8.2853    1.9710  -22.8010 H   0  0  0  0  0  0  0  0  0  0  0  0
   -7.4224    0.9603  -25.9315 H   0  0  0  0  0  0  0  0  0  0  0  0
   -8.7950    2.0515  -26.1222 H   0  0  0  0  0  0  0  0  0  0  0  0
   -8.7182   -1.3764  -25.1501 H   0  0  0  0  0  0  0  0  0  0  0  0
   -7.3665   -0.6132  -24.2790 H   0  0  0  0  0  0  0  0  0  0  0  0
   -7.6869   -1.8062  -18.5707 H   0  0  0  0  0  0  0  0  0  0  0  0
   -4.3845    0.2265  -17.1696 H   0  0  0  0  0  0  0  0  0  0  0  0
   -3.0318    1.6621  -18.6637 H   0  0  0  0  0  0  0  0  0  0  0  0
   -2.4621    2.4364  -20.9522 H   0  0  0  0  0  0  0  0  0  0  0  0
   -3.7891    1.6390  -22.9001 H   0  0  0  0  0  0  0  0  0  0  0  0
   -5.6993    0.1370  -22.5672 H   0  0  0  0  0  0  0  0  0  0  0  0
   -6.2455   -2.3396  -22.3910 H   0  0  0  0  0  0  0  0  0  0  0  0
   -7.0006   -3.2669  -21.0891 H   0  0  0  0  0  0  0  0  0  0  0  0
   -9.1157   -3.1781  -22.0704 H   0  0  0  0  0  0  0  0  0  0  0  0
   -8.7264   -3.4616  -24.7514 H   0  0  0  0  0  0  0  0  0  0  0  0
   -7.0277   -3.3410  -24.2731 H   0  0  0  0  0  0  0  0  0  0  0  0
   -9.4373   -6.1588  -22.1160 H   0  0  0  0  0  0  0  0  0  0  0  0
  -10.7946   -4.3500  -24.0469 H   0  0  0  0  0  0  0  0  0  0  0  0
  -10.8258   -6.1173  -24.2576 H   0  0  0  0  0  0  0  0  0  0  0  0
  -11.5827   -5.3543  -22.8382 H   0  0  0  0  0  0  0  0  0  0  0  0
  -10.9783   -3.0933  -22.1105 H   0  0  0  0  0  0  0  0  0  0  0  0
  -14.3950   -0.7343  -23.0887 H   0  0  0  0  0  0  0  0  0  0  0  0
  -12.8834    1.0427  -24.0174 H   0  0  0  0  0  0  0  0  0  0  0  0
  1  2  1  0
  2  3  1  0
  3  4  2  0
  3  5  1  0
  5  6  1  0
  6  7  1  0
  8  7  1  6
  8  9  1  0
  9 10  2  0
  9 11  1  0
 11 12  1  0
 12 13  2  0
 13 14  1  0
 14 15  2  0
 15 16  1  0
 16 17  2  0
 17 18  1  0
 18 19  2  0
 19 20  1  0
 20 21  2  0
 11 22  1  0
 22 23  1  0
 23 24  1  0
 24 25  1  0
 25 26  2  0
 25 27  2  0
 25 28  1  0
 28 29  1  0
  8 30  1  0
 30 31  2  0
 31 32  1  0
 32 33  1  0
 32 34  2  0
 34 35  1  0
 35 36  2  0
 36 37  1  0
 37 38  2  0
 37  6  1  0
 23  8  1  0
 36 30  1  0
 21 12  1  0
 21 16  1  0
  1 39  1  0
  1 40  1  0
  1 41  1  0
  2 42  1  0
  5 43  1  0
  5 44  1  0
  7 45  1  0
  7 46  1  0
 13 47  1  0
 15 48  1  0
 17 49  1  0
 18 50  1  0
 19 51  1  0
 20 52  1  0
 22 53  1  0
 22 54  1  0
 23 55  1  1
 24 56  1  0
 24 57  1  0
 28 58  1  0
 29 59  1  0
 29 60  1  0
 29 61  1  0
 31 62  1  0
 34 63  1  0
 35 64  1  0
M  END
$$$$

     RDKit          3D

 63 68  0  0  0  0  0  0  0  0999 V2000
   -8.4313   -3.8365  -23.7015 C   0  0  0  0  0  0  0  0  0  0  0  0
   -8.5339   -2.8309  -22.5642 C   0  0  1  0  0  0  0  0  0  0  0  0
   -7.2202   -2.5705  -21.8187 C   0  0  0  0  0  0  0  0  0  0  0  0
   -7.4974   -1.3118  -21.1532 N   0  0  0  0  0  0  0  0  0  0  0  0
   -6.6574   -0.7948  -20.1260 C   0  0  0  0  0  0  0  0  0  0  0  0
   -6.8658   -1.1793  -18.8229 C   0  0  0  0  0  0  0  0  0  0  0  0
   -6.0848   -0.8134  -17.7794 N   0  0  0  0  0  0  0  0  0  0  0  0
   -5.0623   -0.0322  -18.0245 C   0  0  0  0  0  0  0  0  0  0  0  0
   -4.7377    0.4567  -19.3224 C   0  0  0  0  0  0  0  0  0  0  0  0
   -3.6466    1.3420  -19.5332 C   0  0  0  0  0  0  0  0  0  0  0  0
   -3.3220    1.7588  -20.7933 C   0  0  0  0  0  0  0  0  0  0  0  0
   -4.0658    1.2972  -21.8998 C   0  0  0  0  0  0  0  0  0  0  0  0
   -5.1477    0.4668  -21.7202 C   0  0  0  0  0  0  0  0  0  0  0  0
   -5.5334    0.0437  -20.4182 C   0  0  0  0  0  0  0  0  0  0  0  0
   -8.4737   -0.5816  -21.7865 C   0  0  0  0  0  0  0  0  0  0  0  0
   -8.7775    0.5604  -21.4960 O   0  0  0  0  0  0  0  0  0  0  0  0
   -9.0723   -1.4255  -22.9412 C   0  0  1  0  0  0  0  0  0  0  0  0
   -8.5002   -0.9016  -24.2874 C   0  0  0  0  0  0  0  0  0  0  0  0
   -9.0021    0.4223  -24.6194 N   0  0  0  0  0  0  0  0  0  0  0  0
   -8.1935    1.2868  -25.4441 C   0  0  0  0  0  0  0  0  0  0  0  0
   -7.4231    2.3875  -24.7211 C   0  0  0  0  0  0  0  0  0  0  0  0
   -6.7501    3.1736  -25.3767 O   0  0  0  0  0  0  0  0  0  0  0  0
   -7.4894    2.4028  -23.3769 N   0  0  0  0  0  0  0  0  0  0  0  0
   -6.6221    3.3020  -22.6450 C   0  0  0  0  0  0  0  0  0  0  0  0
   -7.0381    4.7477  -22.7449 C   0  0  0  0  0  0  0  0  0  0  0  0
   -8.3058    5.1817  -22.0953 C   0  0  0  0  0  0  0  0  0  0  0  0
   -6.9767    5.6294  -21.5359 C   0  0  0  0  0  0  0  0  0  0  0  0
  -10.2394    0.8750  -24.2583 C   0  0  0  0  0  0  0  0  0  0  0  0
  -10.6077    2.0224  -24.4850 O   0  0  0  0  0  0  0  0  0  0  0  0
  -11.1199   -0.1292  -23.5881 C   0  0  0  0  0  0  0  0  0  0  0  0
  -12.4906    0.1212  -23.5719 C   0  0  0  0  0  0  0  0  0  0  0  0
  -13.3686   -0.8165  -23.0666 C   0  0  0  0  0  0  0  0  0  0  0  0
  -12.8386   -2.0134  -22.5968 C   0  0  0  0  0  0  0  0  0  0  0  0
  -13.6813   -2.9310  -22.0885 F   0  0  0  0  0  0  0  0  0  0  0  0
  -11.4840   -2.2889  -22.6089 C   0  0  0  0  0  0  0  0  0  0  0  0
  -10.5838   -1.3064  -23.0453 C   0  0  0  0  0  0  0  0  0  0  0  0
   -9.3911   -3.9309  -24.2216 H   0  0  0  0  0  0  0  0  0  0  0  0
   -8.1441   -4.8245  -23.3279 H   0  0  0  0  0  0  0  0  0  0  0  0
   -7.6804   -3.5260  -24.4375 H   0  0  0  0  0  0  0  0  0  0  0  0
   -9.2156   -3.2175  -21.7992 H   0  0  0  0  0  0  0  0  0  0  0  0
   -6.3692   -2.4898  -22.5170 H   0  0  0  0  0  0  0  0  0  0  0  0
   -6.9763   -3.3465  -21.0868 H   0  0  0  0  0  0  0  0  0  0  0  0
   -7.7110   -1.8196  -18.5751 H   0  0  0  0  0  0  0  0  0  0  0  0
   -4.4388    0.2609  -17.1782 H   0  0  0  0  0  0  0  0  0  0  0  0
   -3.0940    1.6867  -18.6657 H   0  0  0  0  0  0  0  0  0  0  0  0
   -2.5021    2.4543  -20.9484 H   0  0  0  0  0  0  0  0  0  0  0  0
   -3.7898    1.6164  -22.9011 H   0  0  0  0  0  0  0  0  0  0  0  0
   -5.7147    0.1257  -22.5815 H   0  0  0  0  0  0  0  0  0  0  0  0
   -8.7670   -1.6041  -25.0887 H   0  0  0  0  0  0  0  0  0  0  0  0
   -7.4068   -0.8405  -24.2281 H   0  0  0  0  0  0  0  0  0  0  0  0
   -8.8117    1.7730  -26.2019 H   0  0  0  0  0  0  0  0  0  0  0  0
   -7.4504    0.6806  -25.9713 H   0  0  0  0  0  0  0  0  0  0  0  0
   -8.1454    1.8286  -22.8527 H   0  0  0  0  0  0  0  0  0  0  0  0
   -5.6166    3.1926  -23.0519 H   0  0  0  0  0  0  0  0  0  0  0  0
   -6.6028    2.9666  -21.5993 H   0  0  0  0  0  0  0  0  0  0  0  0
   -6.8003    5.2026  -23.7022 H   0  0  0  0  0  0  0  0  0  0  0  0
   -8.8824    4.4489  -21.5332 H   0  0  0  0  0  0  0  0  0  0  0  0
   -8.9386    5.8766  -22.6419 H   0  0  0  0  0  0  0  0  0  0  0  0
   -6.6373    5.1914  -20.5959 H   0  0  0  0  0  0  0  0  0  0  0  0
   -6.6803    6.6675  -21.6546 H   0  0  0  0  0  0  0  0  0  0  0  0
  -12.8436    1.0612  -23.9816 H   0  0  0  0  0  0  0  0  0  0  0  0
  -14.4386   -0.6428  -23.0210 H   0  0  0  0  0  0  0  0  0  0  0  0
  -11.1539   -3.2566  -22.2484 H   0  0  0  0  0  0  0  0  0  0  0  0
  1  2  1  0
  2  3  1  0
  3  4  1  0
  4  5  1  0
  5  6  2  0
  6  7  1  0
  7  8  2  0
  8  9  1  0
  9 10  2  0
 10 11  1  0
 11 12  2  0
 12 13  1  0
 13 14  2  0
  4 15  1  0
 15 16  2  0
 15 17  1  0
 17 18  1  6
 18 19  1  0
 19 20  1  0
 20 21  1  0
 21 22  2  0
 21 23  1  0
 23 24  1  0
 24 25  1  0
 25 26  1  0
 26 27  1  0
 19 28  1  0
 28 29  2  0
 28 30  1  0
 30 31  2  0
 31 32  1  0
 32 33  2  0
 33 34  1  0
 33 35  1  0
 35 36  2  0
 17  2  1  0
 27 25  1  0
 36 30  1  0
 14  5  1  0
 36 17  1  0
 14  9  1  0
  1 37  1  0
  1 38  1  0
  1 39  1  0
  2 40  1  1
  3 41  1  0
  3 42  1  0
  6 43  1  0
  8 44  1  0
 10 45  1  0
 11 46  1  0
 12 47  1  0
 13 48  1  0
 18 49  1  0
 18 50  1  0
 20 51  1  0
 20 52  1  0
 23 53  1  0
 24 54  1  0
 24 55  1  0
 25 56  1  0
 26 57  1  0
 26 58  1  0
 27 59  1  0
 27 60  1  0
 31 61  1  0
 32 62  1  0
 35 63  1  0
M  END
$$$$

     RDKit          3D

 42 45  0  0  0  0  0  0  0  0999 V2000
   -7.6406    0.6052  -25.6372 C   0  0  0  0  0  0  0  0  0  0  0  0
   -8.5297   -0.0530  -24.6973 N   0  0  0  0  0  0  0  0  0  0  0  0
   -8.1539   -1.3953  -24.2845 C   0  0  0  0  0  0  0  0  0  0  0  0
   -8.8474   -1.8009  -22.9733 C   0  0  1  0  0  0  0  0  0  0  0  0
   -8.2850   -0.9991  -21.7829 C   0  0  0  0  0  0  0  0  0  0  0  0
   -8.7236    0.0688  -21.4238 O   0  0  0  0  0  0  0  0  0  0  0  0
   -7.1994   -1.5902  -21.1636 N   0  0  0  0  0  0  0  0  0  0  0  0
   -6.4506   -0.9524  -20.1358 C   0  0  0  0  0  0  0  0  0  0  0  0
   -6.7751   -1.1301  -18.8164 C   0  0  0  0  0  0  0  0  0  0  0  0
   -6.0715   -0.6227  -17.7718 N   0  0  0  0  0  0  0  0  0  0  0  0
   -5.0512    0.1534  -18.0404 C   0  0  0  0  0  0  0  0  0  0  0  0
   -4.6010    0.4291  -19.3657 C   0  0  0  0  0  0  0  0  0  0  0  0
   -3.5004    1.2844  -19.6359 C   0  0  0  0  0  0  0  0  0  0  0  0
   -3.0534    1.4516  -20.9196 C   0  0  0  0  0  0  0  0  0  0  0  0
   -3.6890    0.7822  -21.9922 C   0  0  0  0  0  0  0  0  0  0  0  0
   -4.7844   -0.0105  -21.7581 C   0  0  0  0  0  0  0  0  0  0  0  0
   -5.2854   -0.1803  -20.4401 C   0  0  0  0  0  0  0  0  0  0  0  0
  -10.3207   -1.5576  -23.1235 C   0  0  0  0  0  0  0  0  0  0  0  0
  -11.2387   -2.3777  -22.4762 C   0  0  0  0  0  0  0  0  0  0  0  0
  -12.5901   -2.0617  -22.5088 C   0  0  0  0  0  0  0  0  0  0  0  0
  -13.7151   -3.0599  -21.6255 Cl  0  0  0  0  0  0  0  0  0  0  0  0
  -13.0461   -0.9424  -23.2072 C   0  0  0  0  0  0  0  0  0  0  0  0
  -12.1252   -0.1420  -23.8658 C   0  0  0  0  0  0  0  0  0  0  0  0
  -10.7601   -0.4206  -23.7954 C   0  0  0  0  0  0  0  0  0  0  0  0
   -9.7485    0.5149  -24.4192 C   0  0  0  0  0  0  0  0  0  0  0  0
   -9.9854    1.6960  -24.6174 O   0  0  0  0  0  0  0  0  0  0  0  0
   -6.6006    0.4312  -25.3370 H   0  0  0  0  0  0  0  0  0  0  0  0
   -7.8589    1.6720  -25.6186 H   0  0  0  0  0  0  0  0  0  0  0  0
   -7.7639    0.2332  -26.6661 H   0  0  0  0  0  0  0  0  0  0  0  0
   -8.3964   -2.1353  -25.0613 H   0  0  0  0  0  0  0  0  0  0  0  0
   -7.0661   -1.4086  -24.1457 H   0  0  0  0  0  0  0  0  0  0  0  0
   -8.6540   -2.8588  -22.7639 H   0  0  0  0  0  0  0  0  0  0  0  0
   -6.8025   -2.4316  -21.5545 H   0  0  0  0  0  0  0  0  0  0  0  0
   -7.6644   -1.7010  -18.5636 H   0  0  0  0  0  0  0  0  0  0  0  0
   -4.5835    0.6591  -17.1932 H   0  0  0  0  0  0  0  0  0  0  0  0
   -3.0384    1.8036  -18.8015 H   0  0  0  0  0  0  0  0  0  0  0  0
   -2.2050    2.0977  -21.1244 H   0  0  0  0  0  0  0  0  0  0  0  0
   -3.3192    0.9097  -23.0053 H   0  0  0  0  0  0  0  0  0  0  0  0
   -5.2850   -0.5209  -22.5726 H   0  0  0  0  0  0  0  0  0  0  0  0
  -10.8937   -3.2096  -21.8651 H   0  0  0  0  0  0  0  0  0  0  0  0
  -14.1024   -0.6925  -23.1861 H   0  0  0  0  0  0  0  0  0  0  0  0
  -12.4382    0.7412  -24.4109 H   0  0  0  0  0  0  0  0  0  0  0  0
  1  2  1  0
  2  3  1  0
  3  4  1  0
  4  5  1  0
  5  6  2  0
  5  7  1  0
  7  8  1  0
  8  9  2  0
  9 10  1  0
 10 11  2  0
 11 12  1  0
 12 13  2  0
 13 14  1  0
 14 15  2  0
 15 16  1  0
 16 17  2  0
  4 18  1  0
 18 19  2  0
 19 20  1  0
 20 21  1  0
 20 22  2  0
 22 23  1  0
 23 24  2  0
 24 25  1  0
 25 26  2  0
 25  2  1  0
 17  8  1  0
 24 18  1  0
 17 12  1  0
  1 27  1  0
  1 28  1  0
  1 29  1  0
  3 30  1  0
  3 31  1  0
  4 32  1  1
  7 33  1  0
  9 34  1  0
 11 35  1  0
 13 36  1  0
 14 37  1  0
 15 38  1  0
 16 39  1  0
 19 40  1  0
 22 41  1  0
 23 42  1  0
M  END
$$$$

     RDKit          3D

 44 47  0  0  0  0  0  0  0  0999 V2000
   -6.4541   -7.1166  -22.3733 C   0  0  0  0  0  0  0  0  0  0  0  0
   -7.7709   -6.7762  -23.0662 C   0  0  0  0  0  0  0  0  0  0  0  0
   -7.6738   -5.7154  -24.1798 C   0  0  1  0  0  0  0  0  0  0  0  0
   -6.9623   -6.1569  -25.4484 C   0  0  0  0  0  0  0  0  0  0  0  0
   -5.5630   -6.4351  -25.6188 C   0  0  0  0  0  0  0  0  0  0  0  0
   -5.2535   -6.8443  -26.8819 C   0  0  0  0  0  0  0  0  0  0  0  0
   -6.6369   -6.8285  -27.9058 S   0  0  0  0  0  0  0  0  0  0  0  0
   -7.6489   -6.2950  -26.6166 C   0  0  0  0  0  0  0  0  0  0  0  0
   -9.0960   -5.9770  -26.8294 C   0  0  0  0  0  0  0  0  0  0  0  0
   -9.7943   -6.0079  -25.4734 C   0  0  0  0  0  0  0  0  0  0  0  0
   -9.0275   -5.2075  -24.5077 N   0  0  0  0  0  0  0  0  0  0  0  0
   -9.3722   -3.8680  -24.4737 C   0  0  0  0  0  0  0  0  0  0  0  0
  -10.1935   -3.4236  -25.2562 O   0  0  0  0  0  0  0  0  0  0  0  0
   -8.7458   -2.9824  -23.3731 C   0  0  0  0  0  0  0  0  0  0  0  0
   -9.2503   -1.5752  -23.5290 C   0  0  0  0  0  0  0  0  0  0  0  0
   -8.4390   -0.5754  -24.0022 C   0  0  0  0  0  0  0  0  0  0  0  0
   -8.8688    0.6631  -24.3586 N   0  0  0  0  0  0  0  0  0  0  0  0
  -10.1546    0.9142  -24.2445 C   0  0  0  0  0  0  0  0  0  0  0  0
  -11.1101   -0.0052  -23.7209 C   0  0  0  0  0  0  0  0  0  0  0  0
  -12.5079    0.2599  -23.6721 C   0  0  0  0  0  0  0  0  0  0  0  0
  -13.3719   -0.6490  -23.1167 C   0  0  0  0  0  0  0  0  0  0  0  0
  -12.8912   -1.8920  -22.6499 C   0  0  0  0  0  0  0  0  0  0  0  0
  -11.5583   -2.2082  -22.7564 C   0  0  0  0  0  0  0  0  0  0  0  0
  -10.6341   -1.2781  -23.3146 C   0  0  0  0  0  0  0  0  0  0  0  0
   -5.7424   -7.6222  -23.0326 H   0  0  0  0  0  0  0  0  0  0  0  0
   -6.6426   -7.7872  -21.5268 H   0  0  0  0  0  0  0  0  0  0  0  0
   -5.9706   -6.2171  -21.9719 H   0  0  0  0  0  0  0  0  0  0  0  0
   -8.2416   -7.6818  -23.4663 H   0  0  0  0  0  0  0  0  0  0  0  0
   -8.4415   -6.3623  -22.3081 H   0  0  0  0  0  0  0  0  0  0  0  0
   -7.0943   -4.8847  -23.7610 H   0  0  0  0  0  0  0  0  0  0  0  0
   -4.8078   -6.3003  -24.8503 H   0  0  0  0  0  0  0  0  0  0  0  0
   -4.2963   -7.1699  -27.2655 H   0  0  0  0  0  0  0  0  0  0  0  0
   -9.5514   -6.6799  -27.5382 H   0  0  0  0  0  0  0  0  0  0  0  0
   -9.1803   -4.9613  -27.2488 H   0  0  0  0  0  0  0  0  0  0  0  0
  -10.7977   -5.5858  -25.5657 H   0  0  0  0  0  0  0  0  0  0  0  0
   -9.8872   -7.0397  -25.1076 H   0  0  0  0  0  0  0  0  0  0  0  0
   -9.0074   -3.3935  -22.3824 H   0  0  0  0  0  0  0  0  0  0  0  0
   -7.6501   -3.0006  -23.4577 H   0  0  0  0  0  0  0  0  0  0  0  0
   -7.3657   -0.7366  -24.1428 H   0  0  0  0  0  0  0  0  0  0  0  0
  -10.4812    1.9055  -24.5640 H   0  0  0  0  0  0  0  0  0  0  0  0
  -12.8680    1.2117  -24.0573 H   0  0  0  0  0  0  0  0  0  0  0  0
  -14.4331   -0.4167  -23.0488 H   0  0  0  0  0  0  0  0  0  0  0  0
  -13.5957   -2.5991  -22.2137 H   0  0  0  0  0  0  0  0  0  0  0  0
  -11.2146   -3.1793  -22.4143 H   0  0  0  0  0  0  0  0  0  0  0  0
  1  2  1  0
  2  3  1  0
  3  4  1  0
  4  5  1  0
  5  6  2  0
  6  7  1  0
  7  8  1  0
  8  9  1  0
  9 10  1  0
 10 11  1  0
 11 12  1  0
 12 13  2  0
 12 14  1  0
 14 15  1  0
 15 16  2  0
 16 17  1  0
 17 18  2  0
 18 19  1  0
 19 20  2  0
 20 21  1  0
 21 22  2  0
 22 23  1  0
 23 24  2  0
 11  3  1  0
 24 15  1  0
  8  4  2  0
 24 19  1  0
  1 25  1  0
  1 26  1  0
  1 27  1  0
  2 28  1  0
  2 29  1  0
  3 30  1  1
  5 31  1  0
  6 32  1  0
  9 33  1  0
  9 34  1  0
 10 35  1  0
 10 36  1  0
 14 37  1  0
 14 38  1  0
 16 39  1  0
 18 40  1  0
 20 41  1  0
 21 42  1  0
 22 43  1  0
 23 44  1  0
M  END
$$$$

     RDKit          3D

 69 74  0  0  0  0  0  0  0  0999 V2000
   -7.0195    3.6144  -22.4567 C   0  0  0  0  0  0  0  0  0  0  0  0
   -7.7136    2.6102  -23.2323 N   0  0  0  0  0  0  0  0  0  0  0  0
   -7.4615    2.5059  -24.5512 C   0  0  0  0  0  0  0  0  0  0  0  0
   -6.7087    3.2585  -25.1614 O   0  0  0  0  0  0  0  0  0  0  0  0
   -8.1559    1.3748  -25.3232 C   0  0  0  0  0  0  0  0  0  0  0  0
   -8.9790    0.4622  -24.5664 N   0  0  0  0  0  0  0  0  0  0  0  0
   -8.4993   -0.8808  -24.2775 C   0  0  0  0  0  0  0  0  0  0  0  0
   -9.0785   -1.3988  -22.9320 C   0  0  2  0  0  0  0  0  0  0  0  0
   -8.4650   -0.5476  -21.7906 C   0  0  0  0  0  0  0  0  0  0  0  0
   -8.7519    0.5974  -21.4980 O   0  0  0  0  0  0  0  0  0  0  0  0
   -7.4893   -1.2843  -21.1676 N   0  0  0  0  0  0  0  0  0  0  0  0
   -6.6532   -0.7863  -20.1356 C   0  0  0  0  0  0  0  0  0  0  0  0
   -6.8625   -1.1819  -18.8373 C   0  0  0  0  0  0  0  0  0  0  0  0
   -6.0785   -0.8264  -17.7914 N   0  0  0  0  0  0  0  0  0  0  0  0
   -5.0527   -0.0482  -18.0317 C   0  0  0  0  0  0  0  0  0  0  0  0
   -4.7304    0.4483  -19.3275 C   0  0  0  0  0  0  0  0  0  0  0  0
   -3.6378    1.3281  -19.5373 C   0  0  0  0  0  0  0  0  0  0  0  0
   -3.3111    1.7506  -20.7949 C   0  0  0  0  0  0  0  0  0  0  0  0
   -4.0556    1.2954  -21.9046 C   0  0  0  0  0  0  0  0  0  0  0  0
   -5.1371    0.4658  -21.7296 C   0  0  0  0  0  0  0  0  0  0  0  0
   -5.5247    0.0446  -20.4261 C   0  0  0  0  0  0  0  0  0  0  0  0
   -7.2398   -2.5554  -21.8126 C   0  0  0  0  0  0  0  0  0  0  0  0
   -8.5743   -2.7922  -22.5159 C   0  0  2  0  0  0  0  0  0  0  0  0
   -8.5797   -3.8408  -23.6280 C   0  0  0  0  0  0  0  0  0  0  0  0
   -8.3389   -5.1882  -23.1611 N   0  0  0  0  0  0  0  0  0  0  0  0
   -7.1013   -5.7063  -22.9471 C   0  0  0  0  0  0  0  0  0  0  0  0
   -5.9426   -5.1875  -23.5439 C   0  0  0  0  0  0  0  0  0  0  0  0
   -4.7985   -5.9243  -23.3825 C   0  0  0  0  0  0  0  0  0  0  0  0
   -4.7138   -7.0234  -22.6283 N   0  0  0  0  0  0  0  0  0  0  0  0
   -5.8546   -7.3736  -22.0263 C   0  0  0  0  0  0  0  0  0  0  0  0
   -5.8521   -8.5675  -21.1304 C   0  0  0  0  0  0  0  0  0  0  0  0
   -7.0408   -6.7929  -22.1691 N   0  0  0  0  0  0  0  0  0  0  0  0
  -10.5862   -1.3036  -23.0430 C   0  0  0  0  0  0  0  0  0  0  0  0
  -11.4844   -2.2992  -22.6215 C   0  0  0  0  0  0  0  0  0  0  0  0
  -12.8446   -2.0398  -22.5949 C   0  0  0  0  0  0  0  0  0  0  0  0
  -13.9246   -3.2200  -21.8977 Cl  0  0  0  0  0  0  0  0  0  0  0  0
  -13.3689   -0.8396  -23.0756 C   0  0  0  0  0  0  0  0  0  0  0  0
  -12.4943    0.1039  -23.5785 C   0  0  0  0  0  0  0  0  0  0  0  0
  -11.1224   -0.1350  -23.5922 C   0  0  0  0  0  0  0  0  0  0  0  0
  -10.2410    0.8818  -24.2476 C   0  0  0  0  0  0  0  0  0  0  0  0
  -10.6270    2.0231  -24.4799 O   0  0  0  0  0  0  0  0  0  0  0  0
   -5.9519    3.6004  -22.7071 H   0  0  0  0  0  0  0  0  0  0  0  0
   -7.4057    4.6202  -22.6577 H   0  0  0  0  0  0  0  0  0  0  0  0
   -7.1608    3.3847  -21.3960 H   0  0  0  0  0  0  0  0  0  0  0  0
   -8.2633    1.9155  -22.7306 H   0  0  0  0  0  0  0  0  0  0  0  0
   -7.3718    0.8167  -25.8445 H   0  0  0  0  0  0  0  0  0  0  0  0
   -8.7717    1.8541  -26.0895 H   0  0  0  0  0  0  0  0  0  0  0  0
   -7.4046   -0.8502  -24.2270 H   0  0  0  0  0  0  0  0  0  0  0  0
   -8.7863   -1.5598  -25.0925 H   0  0  0  0  0  0  0  0  0  0  0  0
   -7.7082   -1.8228  -18.5909 H   0  0  0  0  0  0  0  0  0  0  0  0
   -4.4245    0.2352  -17.1845 H   0  0  0  0  0  0  0  0  0  0  0  0
   -3.0879    1.6699  -18.6677 H   0  0  0  0  0  0  0  0  0  0  0  0
   -2.4900    2.4464  -20.9463 H   0  0  0  0  0  0  0  0  0  0  0  0
   -3.7865    1.6271  -22.9032 H   0  0  0  0  0  0  0  0  0  0  0  0
   -5.6992    0.1236  -22.5947 H   0  0  0  0  0  0  0  0  0  0  0  0
   -6.4075   -2.4932  -22.5316 H   0  0  0  0  0  0  0  0  0  0  0  0
   -6.9871   -3.3169  -21.0723 H   0  0  0  0  0  0  0  0  0  0  0  0
   -9.2481   -3.1208  -21.7170 H   0  0  0  0  0  0  0  0  0  0  0  0
   -9.5507   -3.8176  -24.1442 H   0  0  0  0  0  0  0  0  0  0  0  0
   -7.8201   -3.5879  -24.3752 H   0  0  0  0  0  0  0  0  0  0  0  0
   -9.0372   -5.6151  -22.5647 H   0  0  0  0  0  0  0  0  0  0  0  0
   -5.9145   -4.2917  -24.1456 H   0  0  0  0  0  0  0  0  0  0  0  0
   -3.9044   -5.6080  -23.9095 H   0  0  0  0  0  0  0  0  0  0  0  0
   -5.2454   -8.4097  -20.2311 H   0  0  0  0  0  0  0  0  0  0  0  0
   -6.8914   -8.7771  -20.8438 H   0  0  0  0  0  0  0  0  0  0  0  0
   -5.4289   -9.4082  -21.6886 H   0  0  0  0  0  0  0  0  0  0  0  0
  -11.1415   -3.2682  -22.2761 H   0  0  0  0  0  0  0  0  0  0  0  0
  -14.4388   -0.6591  -23.0343 H   0  0  0  0  0  0  0  0  0  0  0  0
  -12.8512    1.0434  -23.9838 H   0  0  0  0  0  0  0  0  0  0  0  0
  1  2  1  0
  2  3  1  0
  3  4  2  0
  3  5  1  0
  5  6  1  0
  6  7  1  0
  8  7  1  6
  8  9  1  0
  9 10  2  0
  9 11  1  0
 11 12  1  0
 12 13  2  0
 13 14  1  0
 14 15  2  0
 15 16  1  0
 16 17  2  0
 17 18  1  0
 18 19  2  0
 19 20  1  0
 20 21  2  0
 11 22  1  0
 22 23  1  0
 23 24  1  0
 24 25  1  0
 25 26  1  0
 26 27  2  0
 27 28  1  0
 28 29  2  0
 29 30  1  0
 30 31  1  0
 30 32  2  0
  8 33  1  0
 33 34  2  0
 34 35  1  0
 35 36  1  0
 35 37  2  0
 37 38  1  0
 38 39  2  0
 39 40  1  0
 40 41  2  0
 40  6  1  0
 23  8  1  0
 32 26  1  0
 39 33  1  0
 21 12  1  0
 21 16  1  0
  1 42  1  0
  1 43  1  0
  1 44  1  0
  2 45  1  0
  5 46  1  0
  5 47  1  0
  7 48  1  0
  7 49  1  0
 13 50  1  0
 15 51  1  0
 17 52  1  0
 18 53  1  0
 19 54  1  0
 20 55  1  0
 22 56  1  0
 22 57  1  0
 23 58  1  1
 24 59  1  0
 24 60  1  0
 25 61  1  0
 27 62  1  0
 28 63  1  0
 31 64  1  0
 31 65  1  0
 31 66  1  0
 34 67  1  0
 37 68  1  0
 38 69  1  0
M  END
$$$$

     RDKit          3D

 43 45  0  0  0  0  0  0  0  0999 V2000
   -7.6906   -0.4747  -26.6356 C   0  0  0  0  0  0  0  0  0  0  0  0
   -8.8920   -0.7694  -25.7282 C   0  0  0  0  0  0  0  0  0  0  0  0
   -8.6728   -2.0026  -24.8208 C   0  0  0  0  0  0  0  0  0  0  0  0
   -9.8616   -2.1061  -23.8170 C   0  0  0  0  0  0  0  0  0  0  0  0
   -9.5769   -2.9766  -22.5875 C   0  0  0  0  0  0  0  0  0  0  0  0
   -8.2799   -2.5616  -22.0504 N   0  0  0  0  0  0  0  0  0  0  0  0
   -8.2076   -1.3543  -21.3509 C   0  0  0  0  0  0  0  0  0  0  0  0
   -9.2463   -0.8232  -20.9963 O   0  0  0  0  0  0  0  0  0  0  0  0
   -6.9375   -0.4875  -21.3275 C   0  0  0  0  0  0  0  0  0  0  0  0
   -6.1020   -0.3709  -20.0475 C   0  0  0  0  0  0  0  0  0  0  0  0
   -6.5199   -0.8021  -18.7709 C   0  0  0  0  0  0  0  0  0  0  0  0
   -5.7690   -0.6494  -17.6616 N   0  0  0  0  0  0  0  0  0  0  0  0
   -4.5647   -0.0579  -17.7694 C   0  0  0  0  0  0  0  0  0  0  0  0
   -4.0442    0.3840  -18.9914 C   0  0  0  0  0  0  0  0  0  0  0  0
   -2.7631    0.9643  -19.0890 C   0  0  0  0  0  0  0  0  0  0  0  0
   -2.2808    1.3958  -20.3359 C   0  0  0  0  0  0  0  0  0  0  0  0
   -3.0775    1.2732  -21.4829 C   0  0  0  0  0  0  0  0  0  0  0  0
   -4.3525    0.7061  -21.3747 C   0  0  0  0  0  0  0  0  0  0  0  0
   -4.8402    0.2395  -20.1436 C   0  0  0  0  0  0  0  0  0  0  0  0
   -7.1871   -2.8969  -22.9447 C   0  0  0  0  0  0  0  0  0  0  0  0
   -7.2974   -1.9120  -24.1111 C   0  0  0  0  0  0  0  0  0  0  0  0
   -7.8895    0.3952  -27.2753 H   0  0  0  0  0  0  0  0  0  0  0  0
   -6.8093   -0.2556  -26.0217 H   0  0  0  0  0  0  0  0  0  0  0  0
   -7.4793   -1.3426  -27.2702 H   0  0  0  0  0  0  0  0  0  0  0  0
   -9.7883   -0.9126  -26.3362 H   0  0  0  0  0  0  0  0  0  0  0  0
   -9.0847    0.1089  -25.1084 H   0  0  0  0  0  0  0  0  0  0  0  0
   -8.6619   -2.9004  -25.4472 H   0  0  0  0  0  0  0  0  0  0  0  0
  -10.1099   -1.1111  -23.4382 H   0  0  0  0  0  0  0  0  0  0  0  0
  -10.7425   -2.4924  -24.3405 H   0  0  0  0  0  0  0  0  0  0  0  0
  -10.3727   -2.8413  -21.8474 H   0  0  0  0  0  0  0  0  0  0  0  0
   -9.5700   -4.0354  -22.8648 H   0  0  0  0  0  0  0  0  0  0  0  0
   -6.2811   -0.8391  -22.1284 H   0  0  0  0  0  0  0  0  0  0  0  0
   -7.2504    0.5224  -21.6004 H   0  0  0  0  0  0  0  0  0  0  0  0
   -7.5083   -1.2371  -18.6675 H   0  0  0  0  0  0  0  0  0  0  0  0
   -3.9692    0.0754  -16.8706 H   0  0  0  0  0  0  0  0  0  0  0  0
   -2.1435    1.0877  -18.2014 H   0  0  0  0  0  0  0  0  0  0  0  0
   -1.2872    1.8290  -20.4142 H   0  0  0  0  0  0  0  0  0  0  0  0
   -2.7153    1.6179  -22.4520 H   0  0  0  0  0  0  0  0  0  0  0  0
   -4.9785    0.6268  -22.2572 H   0  0  0  0  0  0  0  0  0  0  0  0
   -6.2192   -2.8247  -22.4359 H   0  0  0  0  0  0  0  0  0  0  0  0
   -7.2886   -3.9223  -23.3173 H   0  0  0  0  0  0  0  0  0  0  0  0
   -6.4870   -2.0892  -24.8219 H   0  0  0  0  0  0  0  0  0  0  0  0
   -7.1763   -0.8996  -23.7268 H   0  0  0  0  0  0  0  0  0  0  0  0
  1  2  1  0
  2  3  1  0
  3  4  1  0
  4  5  1  0
  5  6  1  0
  6  7  1  0
  7  8  2  0
  7  9  1  0
  9 10  1  0
 10 11  2  0
 11 12  1  0
 12 13  2  0
 13 14  1  0
 14 15  2  0
 15 16  1  0
 16 17  2  0
 17 18  1  0
 18 19  2  0
  6 20  1  0
 20 21  1  0
 21  3  1  0
 19 10  1  0
 19 14  1  0
  1 22  1  0
  1 23  1  0
  1 24  1  0
  2 25  1  0
  2 26  1  0
  3 27  1  0
  4 28  1  0
  4 29  1  0
  5 30  1  0
  5 31  1  0
  9 32  1  0
  9 33  1  0
 11 34  1  0
 13 35  1  0
 15 36  1  0
 16 37  1  0
 17 38  1  0
 18 39  1  0
 20 40  1  0
 20 41  1  0
 21 42  1  0
 21 43  1  0
M  END
$$$$

     RDKit          3D

 54 57  0  0  0  0  0  0  0  0999 V2000
   -5.1578   -1.4741  -27.1342 C   0  0  0  0  0  0  0  0  0  0  0  0
   -6.1932   -1.5222  -26.1780 O   0  0  0  0  0  0  0  0  0  0  0  0
   -6.6782   -2.7550  -25.8495 C   0  0  0  0  0  0  0  0  0  0  0  0
   -6.1999   -3.9305  -26.4271 C   0  0  0  0  0  0  0  0  0  0  0  0
   -6.7094   -5.1624  -26.0339 C   0  0  0  0  0  0  0  0  0  0  0  0
   -7.7001   -5.2203  -25.0697 C   0  0  0  0  0  0  0  0  0  0  0  0
   -8.1708   -4.0444  -24.4989 C   0  0  0  0  0  0  0  0  0  0  0  0
   -7.6620   -2.8023  -24.8492 C   0  0  0  0  0  0  0  0  0  0  0  0
   -8.0938   -1.5347  -24.1277 C   0  0  1  0  0  0  0  0  0  0  0  0
   -8.9385   -0.5597  -24.9949 C   0  0  0  0  0  0  0  0  0  0  0  0
   -9.7114    0.4622  -24.1330 C   0  0  2  0  0  0  0  0  0  0  0  0
   -8.8228    1.3990  -23.3040 C   0  0  0  0  0  0  0  0  0  0  0  0
  -10.7207   -0.2815  -23.2318 C   0  0  0  0  0  0  0  0  0  0  0  0
  -10.2945   -1.7386  -23.0619 C   0  0  0  0  0  0  0  0  0  0  0  0
   -8.8367   -1.8555  -22.9022 N   0  0  0  0  0  0  0  0  0  0  0  0
   -8.3567   -1.4826  -21.6504 C   0  0  0  0  0  0  0  0  0  0  0  0
   -9.0885   -0.8994  -20.8829 O   0  0  0  0  0  0  0  0  0  0  0  0
   -6.9794   -1.9817  -21.2095 C   0  0  0  0  0  0  0  0  0  0  0  0
   -6.2407   -1.1907  -20.1474 C   0  0  0  0  0  0  0  0  0  0  0  0
   -6.5015   -1.4245  -18.8194 C   0  0  0  0  0  0  0  0  0  0  0  0
   -5.8109   -0.9086  -17.7700 N   0  0  0  0  0  0  0  0  0  0  0  0
   -4.8107   -0.1040  -18.0380 C   0  0  0  0  0  0  0  0  0  0  0  0
   -4.4432    0.2616  -19.3587 C   0  0  0  0  0  0  0  0  0  0  0  0
   -3.3755    1.1599  -19.6020 C   0  0  0  0  0  0  0  0  0  0  0  0
   -3.0217    1.4926  -20.8835 C   0  0  0  0  0  0  0  0  0  0  0  0
   -3.7116    0.9151  -21.9707 C   0  0  0  0  0  0  0  0  0  0  0  0
   -4.7436    0.0353  -21.7602 C   0  0  0  0  0  0  0  0  0  0  0  0
   -5.1622   -0.3011  -20.4454 C   0  0  0  0  0  0  0  0  0  0  0  0
   -4.2754   -2.0297  -26.7885 H   0  0  0  0  0  0  0  0  0  0  0  0
   -4.8969   -0.4211  -27.2592 H   0  0  0  0  0  0  0  0  0  0  0  0
   -5.4887   -1.8901  -28.0959 H   0  0  0  0  0  0  0  0  0  0  0  0
   -5.4183   -3.9014  -27.1750 H   0  0  0  0  0  0  0  0  0  0  0  0
   -6.3158   -6.0740  -26.4733 H   0  0  0  0  0  0  0  0  0  0  0  0
   -8.0951   -6.1706  -24.7315 H   0  0  0  0  0  0  0  0  0  0  0  0
   -8.9281   -4.0938  -23.7263 H   0  0  0  0  0  0  0  0  0  0  0  0
   -7.1915   -0.9897  -23.8214 H   0  0  0  0  0  0  0  0  0  0  0  0
   -8.2796   -0.0538  -25.7031 H   0  0  0  0  0  0  0  0  0  0  0  0
   -9.6644   -1.1268  -25.5943 H   0  0  0  0  0  0  0  0  0  0  0  0
  -10.2745    1.1220  -24.8012 H   0  0  0  0  0  0  0  0  0  0  0  0
   -9.4673    2.0277  -22.6865 H   0  0  0  0  0  0  0  0  0  0  0  0
   -8.1404    0.8763  -22.6254 H   0  0  0  0  0  0  0  0  0  0  0  0
   -8.2395    2.0753  -23.9367 H   0  0  0  0  0  0  0  0  0  0  0  0
  -10.7732    0.2058  -22.2575 H   0  0  0  0  0  0  0  0  0  0  0  0
  -11.7408   -0.2424  -23.6312 H   0  0  0  0  0  0  0  0  0  0  0  0
  -10.7884   -2.2091  -22.2101 H   0  0  0  0  0  0  0  0  0  0  0  0
  -10.5943   -2.3014  -23.9571 H   0  0  0  0  0  0  0  0  0  0  0  0
   -6.3774   -2.1617  -22.0998 H   0  0  0  0  0  0  0  0  0  0  0  0
   -7.1972   -2.9769  -20.7885 H   0  0  0  0  0  0  0  0  0  0  0  0
   -7.3059   -2.1008  -18.5286 H   0  0  0  0  0  0  0  0  0  0  0  0
   -4.2360    0.3019  -17.1993 H   0  0  0  0  0  0  0  0  0  0  0  0
   -2.8477    1.5812  -18.7511 H   0  0  0  0  0  0  0  0  0  0  0  0
   -2.2233    2.2041  -21.0737 H   0  0  0  0  0  0  0  0  0  0  0  0
   -3.4139    1.1589  -22.9874 H   0  0  0  0  0  0  0  0  0  0  0  0
   -5.2503   -0.4171  -22.6102 H   0  0  0  0  0  0  0  0  0  0  0  0
  1  2  1  0
  2  3  1  0
  3  4  2  0
  4  5  1  0
  5  6  2  0
  6  7  1  0
  7  8  2  0
  8  9  1  0
  9 10  1  0
 10 11  1  0
 11 12  1  0
 11 13  1  0
 13 14  1  0
 14 15  1  0
 15 16  1  0
 16 17  2  0
 16 18  1  0
 18 19  1  0
 19 20  2  0
 20 21  1  0
 21 22  2  0
 22 23  1  0
 23 24  2  0
 24 25  1  0
 25 26  2  0
 26 27  1  0
 27 28  2  0
  8  3  1  0
 15  9  1  0
 28 19  1  0
 28 23  1  0
  1 29  1  0
  1 30  1  0
  1 31  1  0
  4 32  1  0
  5 33  1  0
  6 34  1  0
  7 35  1  0
  9 36  1  1
 10 37  1  0
 10 38  1  0
 11 39  1  6
 12 40  1  0
 12 41  1  0
 12 42  1  0
 13 43  1  0
 13 44  1  0
 14 45  1  0
 14 46  1  0
 18 47  1  0
 18 48  1  0
 20 49  1  0
 22 50  1  0
 24 51  1  0
 25 52  1  0
 26 53  1  0
 27 54  1  0
M  END
$$$$

     RDKit          3D

 42 45  0  0  0  0  0  0  0  0999 V2000
   -8.3021   -0.2260  -21.1958 O   0  0  0  0  0  0  0  0  0  0  0  0
   -7.8384   -1.3073  -21.4873 C   0  0  0  0  0  0  0  0  0  0  0  0
   -8.5975   -2.4281  -22.2026 C   0  0  1  0  0  0  0  0  0  0  0  0
   -9.9423   -1.9716  -22.7130 C   0  0  0  0  0  0  0  0  0  0  0  0
  -10.0684   -0.9677  -23.6695 C   0  0  0  0  0  0  0  0  0  0  0  0
  -11.3296   -0.5300  -24.0424 C   0  0  0  0  0  0  0  0  0  0  0  0
  -12.4777   -1.1082  -23.5108 C   0  0  0  0  0  0  0  0  0  0  0  0
  -14.0232   -0.4979  -23.9553 Cl  0  0  0  0  0  0  0  0  0  0  0  0
  -12.3660   -2.1620  -22.6099 C   0  0  0  0  0  0  0  0  0  0  0  0
  -13.7652   -2.9445  -21.9539 Cl  0  0  0  0  0  0  0  0  0  0  0  0
  -11.0990   -2.5743  -22.2160 C   0  0  0  0  0  0  0  0  0  0  0  0
   -7.6969   -3.0831  -23.2517 C   0  0  0  0  0  0  0  0  0  0  0  0
   -6.4837   -3.6978  -22.5674 C   0  0  2  0  0  0  0  0  0  0  0  0
   -6.8587   -4.7606  -21.7023 O   0  0  0  0  0  0  0  0  0  0  0  0
   -5.7272   -2.6540  -21.7546 C   0  0  0  0  0  0  0  0  0  0  0  0
   -6.5583   -1.6559  -21.0920 N   0  0  0  0  0  0  0  0  0  0  0  0
   -5.9756   -0.8896  -20.0380 C   0  0  0  0  0  0  0  0  0  0  0  0
   -6.3915   -1.0839  -18.7448 C   0  0  0  0  0  0  0  0  0  0  0  0
   -5.8385   -0.4954  -17.6513 N   0  0  0  0  0  0  0  0  0  0  0  0
   -4.8573    0.3555  -17.8542 C   0  0  0  0  0  0  0  0  0  0  0  0
   -4.3489    0.6875  -19.1468 C   0  0  0  0  0  0  0  0  0  0  0  0
   -3.3147    1.6488  -19.3263 C   0  0  0  0  0  0  0  0  0  0  0  0
   -2.8447    1.9469  -20.5763 C   0  0  0  0  0  0  0  0  0  0  0  0
   -3.4113    1.3108  -21.7117 C   0  0  0  0  0  0  0  0  0  0  0  0
   -4.4375    0.4053  -21.5713 C   0  0  0  0  0  0  0  0  0  0  0  0
   -4.9239    0.0578  -20.2798 C   0  0  0  0  0  0  0  0  0  0  0  0
   -8.7828   -3.1994  -21.4478 H   0  0  0  0  0  0  0  0  0  0  0  0
   -9.1934   -0.4798  -24.0985 H   0  0  0  0  0  0  0  0  0  0  0  0
  -11.4397    0.3124  -24.7070 H   0  0  0  0  0  0  0  0  0  0  0  0
  -11.0408   -3.3766  -21.4878 H   0  0  0  0  0  0  0  0  0  0  0  0
   -8.2430   -3.8688  -23.7849 H   0  0  0  0  0  0  0  0  0  0  0  0
   -7.3771   -2.3548  -24.0058 H   0  0  0  0  0  0  0  0  0  0  0  0
   -5.7813   -4.0752  -23.3276 H   0  0  0  0  0  0  0  0  0  0  0  0
   -7.1179   -5.5066  -22.2590 H   0  0  0  0  0  0  0  0  0  0  0  0
   -5.1605   -3.1713  -20.9823 H   0  0  0  0  0  0  0  0  0  0  0  0
   -4.9953   -2.1727  -22.4134 H   0  0  0  0  0  0  0  0  0  0  0  0
   -7.1963   -1.7860  -18.5324 H   0  0  0  0  0  0  0  0  0  0  0  0
   -4.4920    0.9062  -16.9834 H   0  0  0  0  0  0  0  0  0  0  0  0
   -2.9091    2.1402  -18.4443 H   0  0  0  0  0  0  0  0  0  0  0  0
   -2.0521    2.6845  -20.7038 H   0  0  0  0  0  0  0  0  0  0  0  0
   -3.0335    1.5436  -22.7024 H   0  0  0  0  0  0  0  0  0  0  0  0
   -4.8894   -0.0682  -22.4422 H   0  0  0  0  0  0  0  0  0  0  0  0
  1  2  2  0
  2  3  1  0
  3  4  1  0
  4  5  2  0
  5  6  1  0
  6  7  2  0
  7  8  1  0
  7  9  1  0
  9 10  1  0
  9 11  2  0
  3 12  1  0
 12 13  1  0
 13 14  1  0
 13 15  1  0
 15 16  1  0
 16 17  1  0
 17 18  2  0
 18 19  1  0
 19 20  2  0
 20 21  1  0
 21 22  2  0
 22 23  1  0
 23 24  2  0
 24 25  1  0
 25 26  2  0
 16  2  1  0
 26 17  1  0
 11  4  1  0
 26 21  1  0
  3 27  1  1
  5 28  1  0
  6 29  1  0
 11 30  1  0
 12 31  1  0
 12 32  1  0
 13 33  1  6
 14 34  1  0
 15 35  1  0
 15 36  1  0
 18 37  1  0
 20 38  1  0
 22 39  1  0
 23 40  1  0
 24 41  1  0
 25 42  1  0
M  END
$$$$

     RDKit          3D

 40 42  0  0  0  0  0  0  0  0999 V2000
   -9.9924    1.5512  -24.6244 C   0  0  0  0  0  0  0  0  0  0  0  0
   -9.7014    0.0531  -24.7164 C   0  0  0  0  0  0  0  0  0  0  0  0
  -10.4813   -0.7066  -23.6261 C   0  0  0  0  0  0  0  0  0  0  0  0
   -9.9153   -2.1041  -23.3547 C   0  0  0  0  0  0  0  0  0  0  0  0
   -8.4611   -2.0083  -23.1406 N   0  0  0  0  0  0  0  0  0  0  0  0
   -8.1599   -1.3156  -21.9713 C   0  0  0  0  0  0  0  0  0  0  0  0
   -8.9656   -1.2932  -21.0531 O   0  0  0  0  0  0  0  0  0  0  0  0
   -6.8939   -0.4766  -21.8775 C   0  0  0  0  0  0  0  0  0  0  0  0
   -6.1071   -0.4874  -20.5939 C   0  0  0  0  0  0  0  0  0  0  0  0
   -6.5966   -0.9122  -19.3872 C   0  0  0  0  0  0  0  0  0  0  0  0
   -5.9494   -0.7941  -18.1971 N   0  0  0  0  0  0  0  0  0  0  0  0
   -4.7883   -0.1883  -18.1954 C   0  0  0  0  0  0  0  0  0  0  0  0
   -4.1451    0.2872  -19.3711 C   0  0  0  0  0  0  0  0  0  0  0  0
   -2.8838    0.9336  -19.3373 C   0  0  0  0  0  0  0  0  0  0  0  0
   -2.2840    1.3553  -20.4937 C   0  0  0  0  0  0  0  0  0  0  0  0
   -2.8954    1.0902  -21.7400 C   0  0  0  0  0  0  0  0  0  0  0  0
   -4.1014    0.4384  -21.8022 C   0  0  0  0  0  0  0  0  0  0  0  0
   -4.7920    0.0774  -20.6154 C   0  0  0  0  0  0  0  0  0  0  0  0
   -7.8087   -1.6095  -24.3888 C   0  0  0  0  0  0  0  0  0  0  0  0
   -8.1761   -0.1678  -24.7260 C   0  0  0  0  0  0  0  0  0  0  0  0
   -9.4649    2.1066  -25.4080 H   0  0  0  0  0  0  0  0  0  0  0  0
  -11.0623    1.7675  -24.7129 H   0  0  0  0  0  0  0  0  0  0  0  0
   -9.6535    1.9386  -23.6567 H   0  0  0  0  0  0  0  0  0  0  0  0
  -10.0550   -0.3604  -25.6693 H   0  0  0  0  0  0  0  0  0  0  0  0
  -11.5431   -0.7550  -23.8963 H   0  0  0  0  0  0  0  0  0  0  0  0
  -10.4458   -0.1598  -22.6795 H   0  0  0  0  0  0  0  0  0  0  0  0
  -10.3588   -2.5361  -22.4572 H   0  0  0  0  0  0  0  0  0  0  0  0
  -10.0905   -2.7882  -24.1894 H   0  0  0  0  0  0  0  0  0  0  0  0
   -7.2399    0.5604  -22.0303 H   0  0  0  0  0  0  0  0  0  0  0  0
   -6.2443   -0.7176  -22.7120 H   0  0  0  0  0  0  0  0  0  0  0  0
   -7.5797   -1.3646  -19.3305 H   0  0  0  0  0  0  0  0  0  0  0  0
   -4.2884   -0.0626  -17.2318 H   0  0  0  0  0  0  0  0  0  0  0  0
   -2.3941    1.0567  -18.3754 H   0  0  0  0  0  0  0  0  0  0  0  0
   -1.3314    1.8772  -20.4674 H   0  0  0  0  0  0  0  0  0  0  0  0
   -2.3946    1.3814  -22.6587 H   0  0  0  0  0  0  0  0  0  0  0  0
   -4.5037    0.1732  -22.7775 H   0  0  0  0  0  0  0  0  0  0  0  0
   -8.1772   -2.2852  -25.1691 H   0  0  0  0  0  0  0  0  0  0  0  0
   -6.7281   -1.7702  -24.3265 H   0  0  0  0  0  0  0  0  0  0  0  0
   -7.6996    0.4968  -24.0025 H   0  0  0  0  0  0  0  0  0  0  0  0
   -7.7592    0.1314  -25.6955 H   0  0  0  0  0  0  0  0  0  0  0  0
  1  2  1  0
  2  3  1  0
  3  4  1  0
  4  5  1  0
  5  6  1  0
  6  7  2  0
  6  8  1  0
  8  9  1  0
  9 10  2  0
 10 11  1  0
 11 12  2  0
 12 13  1  0
 13 14  2  0
 14 15  1  0
 15 16  2  0
 16 17  1  0
 17 18  2  0
  5 19  1  0
 19 20  1  0
 20  2  1  0
 18  9  1  0
 18 13  1  0
  1 21  1  0
  1 22  1  0
  1 23  1  0
  2 24  1  0
  3 25  1  0
  3 26  1  0
  4 27  1  0
  4 28  1  0
  8 29  1  0
  8 30  1  0
 10 31  1  0
 12 32  1  0
 14 33  1  0
 15 34  1  0
 16 35  1  0
 17 36  1  0
 19 37  1  0
 19 38  1  0
 20 39  1  0
 20 40  1  0
M  END
$$$$

     RDKit          3D

 62 67  0  0  0  0  0  0  0  0999 V2000
   -7.6702    4.5240  -27.1889 C   0  0  0  0  0  0  0  0  0  0  0  0
   -8.9089    3.6399  -27.1676 C   0  0  0  0  0  0  0  0  0  0  0  0
   -8.5912    2.2679  -27.5454 N   0  0  0  0  0  0  0  0  0  0  0  0
   -8.6852    1.9370  -28.8417 N   0  0  0  0  0  0  0  0  0  0  0  0
   -8.4172    0.6417  -28.8890 C   0  0  0  0  0  0  0  0  0  0  0  0
   -8.1319    0.1258  -27.6054 C   0  0  0  0  0  0  0  0  0  0  0  0
   -8.2434    1.2144  -26.7555 C   0  0  0  0  0  0  0  0  0  0  0  0
   -8.0649    1.3511  -25.2607 C   0  0  0  0  0  0  0  0  0  0  0  0
   -8.9167    0.4617  -24.5024 N   0  0  0  0  0  0  0  0  0  0  0  0
   -8.5012   -0.9076  -24.2776 C   0  0  0  0  0  0  0  0  0  0  0  0
   -9.0574   -1.4358  -22.9277 C   0  0  2  0  0  0  0  0  0  0  0  0
   -8.4582   -0.5822  -21.7657 C   0  0  0  0  0  0  0  0  0  0  0  0
   -8.7417    0.5517  -21.4622 O   0  0  0  0  0  0  0  0  0  0  0  0
   -7.4917   -1.3400  -21.1274 N   0  0  0  0  0  0  0  0  0  0  0  0
   -6.6441   -0.8212  -20.1093 C   0  0  0  0  0  0  0  0  0  0  0  0
   -6.8598   -1.1843  -18.8034 C   0  0  0  0  0  0  0  0  0  0  0  0
   -6.0728   -0.8223  -17.7608 N   0  0  0  0  0  0  0  0  0  0  0  0
   -5.0415   -0.0571  -18.0225 C   0  0  0  0  0  0  0  0  0  0  0  0
   -4.7198    0.4248  -19.3212 C   0  0  0  0  0  0  0  0  0  0  0  0
   -3.6440    1.3283  -19.5250 C   0  0  0  0  0  0  0  0  0  0  0  0
   -3.3369    1.7562  -20.7873 C   0  0  0  0  0  0  0  0  0  0  0  0
   -4.0733    1.2890  -21.9000 C   0  0  0  0  0  0  0  0  0  0  0  0
   -5.1379    0.4430  -21.7223 C   0  0  0  0  0  0  0  0  0  0  0  0
   -5.5109    0.0059  -20.4166 C   0  0  0  0  0  0  0  0  0  0  0  0
   -7.2101   -2.5864  -21.8146 C   0  0  0  0  0  0  0  0  0  0  0  0
   -8.5252   -2.8451  -22.5586 C   0  0  2  0  0  0  0  0  0  0  0  0
   -8.4267   -3.8385  -23.7068 C   0  0  0  0  0  0  0  0  0  0  0  0
  -10.5678   -1.3060  -23.0468 C   0  0  0  0  0  0  0  0  0  0  0  0
  -11.4754   -2.2846  -22.6224 C   0  0  0  0  0  0  0  0  0  0  0  0
  -12.8231   -1.9907  -22.6261 C   0  0  0  0  0  0  0  0  0  0  0  0
  -13.6848   -2.9051  -22.1470 F   0  0  0  0  0  0  0  0  0  0  0  0
  -13.3426   -0.7899  -23.0932 C   0  0  0  0  0  0  0  0  0  0  0  0
  -12.4556    0.1431  -23.5876 C   0  0  0  0  0  0  0  0  0  0  0  0
  -11.0869   -0.1192  -23.5910 C   0  0  0  0  0  0  0  0  0  0  0  0
  -10.1730    0.8991  -24.1993 C   0  0  0  0  0  0  0  0  0  0  0  0
  -10.5467    2.0457  -24.4192 O   0  0  0  0  0  0  0  0  0  0  0  0
   -6.9091    4.1506  -26.4924 H   0  0  0  0  0  0  0  0  0  0  0  0
   -7.9306    5.5502  -26.9149 H   0  0  0  0  0  0  0  0  0  0  0  0
   -7.2552    4.5223  -28.2011 H   0  0  0  0  0  0  0  0  0  0  0  0
   -9.4127    3.6326  -26.1950 H   0  0  0  0  0  0  0  0  0  0  0  0
   -9.6335    3.9768  -27.9147 H   0  0  0  0  0  0  0  0  0  0  0  0
   -8.4442    0.1443  -29.8568 H   0  0  0  0  0  0  0  0  0  0  0  0
   -7.9077   -0.9020  -27.3445 H   0  0  0  0  0  0  0  0  0  0  0  0
   -7.0256    1.1472  -24.9745 H   0  0  0  0  0  0  0  0  0  0  0  0
   -8.2939    2.3718  -24.9346 H   0  0  0  0  0  0  0  0  0  0  0  0
   -7.4085   -0.9332  -24.2710 H   0  0  0  0  0  0  0  0  0  0  0  0
   -8.8556   -1.5558  -25.0923 H   0  0  0  0  0  0  0  0  0  0  0  0
   -7.7117   -1.8173  -18.5583 H   0  0  0  0  0  0  0  0  0  0  0  0
   -4.4019    0.2330  -17.1898 H   0  0  0  0  0  0  0  0  0  0  0  0
   -3.0882    1.6790  -18.6571 H   0  0  0  0  0  0  0  0  0  0  0  0
   -2.5210    2.4539  -20.9429 H   0  0  0  0  0  0  0  0  0  0  0  0
   -3.7983    1.6176  -22.9006 H   0  0  0  0  0  0  0  0  0  0  0  0
   -5.7139    0.1194  -22.5868 H   0  0  0  0  0  0  0  0  0  0  0  0
   -6.9810   -3.3694  -21.0882 H   0  0  0  0  0  0  0  0  0  0  0  0
   -6.3574   -2.4987  -22.5131 H   0  0  0  0  0  0  0  0  0  0  0  0
   -9.2012   -3.2405  -21.7906 H   0  0  0  0  0  0  0  0  0  0  0  0
   -8.1294   -4.8277  -23.3445 H   0  0  0  0  0  0  0  0  0  0  0  0
   -9.3934   -3.9276  -24.2149 H   0  0  0  0  0  0  0  0  0  0  0  0
   -7.6873   -3.5043  -24.4442 H   0  0  0  0  0  0  0  0  0  0  0  0
  -11.1661   -3.2712  -22.2878 H   0  0  0  0  0  0  0  0  0  0  0  0
  -14.4134   -0.6184  -23.0731 H   0  0  0  0  0  0  0  0  0  0  0  0
  -12.7997    1.0893  -23.9871 H   0  0  0  0  0  0  0  0  0  0  0  0
  1  2  1  0
  2  3  1  0
  3  4  1  0
  4  5  2  0
  5  6  1  0
  6  7  2  0
  7  8  1  0
  8  9  1  0
  9 10  1  0
 11 10  1  6
 11 12  1  0
 12 13  2  0
 12 14  1  0
 14 15  1  0
 15 16  2  0
 16 17  1  0
 17 18  2  0
 18 19  1  0
 19 20  2  0
 20 21  1  0
 21 22  2  0
 22 23  1  0
 23 24  2  0
 14 25  1  0
 25 26  1  0
 26 27  1  0
 11 28  1  0
 28 29  2  0
 29 30  1  0
 30 31  1  0
 30 32  2  0
 32 33  1  0
 33 34  2  0
 34 35  1  0
 35 36  2  0
  7  3  1  0
 35  9  1  0
 26 11  1  0
 34 28  1  0
 24 15  1  0
 24 19  1  0
  1 37  1  0
  1 38  1  0
  1 39  1  0
  2 40  1  0
  2 41  1  0
  5 42  1  0
  6 43  1  0
  8 44  1  0
  8 45  1  0
 10 46  1  0
 10 47  1  0
 16 48  1  0
 18 49  1  0
 20 50  1  0
 21 51  1  0
 22 52  1  0
 23 53  1  0
 25 54  1  0
 25 55  1  0
 26 56  1  1
 27 57  1  0
 27 58  1  0
 27 59  1  0
 29 60  1  0
 32 61  1  0
 33 62  1  0
M  END
$$$$

     RDKit          3D

 50 53  0  0  0  0  0  0  0  0999 V2000
  -10.4542   -3.7024  -25.2039 O   0  0  0  0  0  0  0  0  0  0  0  0
   -9.6107   -4.2368  -24.4913 C   0  0  0  0  0  0  0  0  0  0  0  0
   -8.7680   -3.3560  -23.5574 C   0  0  0  0  0  0  0  0  0  0  0  0
   -9.2018   -1.8908  -23.5949 C   0  0  0  0  0  0  0  0  0  0  0  0
   -8.3075   -0.8696  -23.9769 C   0  0  0  0  0  0  0  0  0  0  0  0
   -8.6769    0.4089  -24.1458 N   0  0  0  0  0  0  0  0  0  0  0  0
   -9.9767    0.7130  -23.9757 C   0  0  0  0  0  0  0  0  0  0  0  0
  -10.9399   -0.2260  -23.6104 C   0  0  0  0  0  0  0  0  0  0  0  0
  -12.2844    0.1402  -23.4928 C   0  0  0  0  0  0  0  0  0  0  0  0
  -13.2445   -0.8132  -23.1413 C   0  0  0  0  0  0  0  0  0  0  0  0
  -12.8589   -2.1300  -22.8662 C   0  0  0  0  0  0  0  0  0  0  0  0
  -11.5068   -2.4948  -22.9886 C   0  0  0  0  0  0  0  0  0  0  0  0
  -10.5454   -1.5503  -23.3789 C   0  0  0  0  0  0  0  0  0  0  0  0
   -9.4477   -5.6222  -24.5971 N   0  0  0  0  0  0  0  0  0  0  0  0
  -10.0433   -6.2358  -25.7868 C   0  0  0  0  0  0  0  0  0  0  0  0
   -9.1001   -5.8651  -26.9388 C   0  0  0  0  0  0  0  0  0  0  0  0
   -7.7020   -6.4459  -26.6673 C   0  0  0  0  0  0  0  0  0  0  0  0
   -7.1741   -6.0242  -25.2845 C   0  0  0  0  0  0  0  0  0  0  0  0
   -8.2114   -6.2910  -24.1896 C   0  0  1  0  0  0  0  0  0  0  0  0
   -7.6160   -5.8855  -22.8342 C   0  0  0  0  0  0  0  0  0  0  0  0
   -6.4044   -6.7619  -22.5594 C   0  0  0  0  0  0  0  0  0  0  0  0
   -6.4694   -8.1560  -22.7336 C   0  0  0  0  0  0  0  0  0  0  0  0
   -5.3303   -8.9537  -22.5573 C   0  0  0  0  0  0  0  0  0  0  0  0
   -4.1094   -8.3626  -22.2225 C   0  0  0  0  0  0  0  0  0  0  0  0
   -4.0322   -6.9785  -22.0516 C   0  0  0  0  0  0  0  0  0  0  0  0
   -5.1742   -6.1835  -22.2122 C   0  0  0  0  0  0  0  0  0  0  0  0
   -7.7192   -3.4390  -23.8510 H   0  0  0  0  0  0  0  0  0  0  0  0
   -8.8699   -3.7510  -22.5464 H   0  0  0  0  0  0  0  0  0  0  0  0
   -7.2686   -1.1134  -24.1709 H   0  0  0  0  0  0  0  0  0  0  0  0
  -10.3245    1.7297  -24.1209 H   0  0  0  0  0  0  0  0  0  0  0  0
  -12.5623    1.1702  -23.6936 H   0  0  0  0  0  0  0  0  0  0  0  0
  -14.2842   -0.5018  -23.0787 H   0  0  0  0  0  0  0  0  0  0  0  0
  -13.6044   -2.8588  -22.5592 H   0  0  0  0  0  0  0  0  0  0  0  0
  -11.1981   -3.5154  -22.7924 H   0  0  0  0  0  0  0  0  0  0  0  0
  -11.0540   -5.8500  -25.9738 H   0  0  0  0  0  0  0  0  0  0  0  0
  -10.1207   -7.3254  -25.6780 H   0  0  0  0  0  0  0  0  0  0  0  0
   -9.0343   -4.7728  -27.0246 H   0  0  0  0  0  0  0  0  0  0  0  0
   -9.4883   -6.2483  -27.8853 H   0  0  0  0  0  0  0  0  0  0  0  0
   -6.9985   -6.1202  -27.4392 H   0  0  0  0  0  0  0  0  0  0  0  0
   -7.7672   -7.5381  -26.7075 H   0  0  0  0  0  0  0  0  0  0  0  0
   -6.9173   -4.9604  -25.2859 H   0  0  0  0  0  0  0  0  0  0  0  0
   -6.2630   -6.5847  -25.0525 H   0  0  0  0  0  0  0  0  0  0  0  0
   -8.4181   -7.3678  -24.1485 H   0  0  0  0  0  0  0  0  0  0  0  0
   -7.2972   -4.8418  -22.8727 H   0  0  0  0  0  0  0  0  0  0  0  0
   -8.3631   -5.9886  -22.0404 H   0  0  0  0  0  0  0  0  0  0  0  0
   -7.4065   -8.6174  -23.0308 H   0  0  0  0  0  0  0  0  0  0  0  0
   -5.3827  -10.0305  -22.6899 H   0  0  0  0  0  0  0  0  0  0  0  0
   -3.2222   -8.9756  -22.1015 H   0  0  0  0  0  0  0  0  0  0  0  0
   -3.0781   -6.5240  -21.8124 H   0  0  0  0  0  0  0  0  0  0  0  0
   -5.0973   -5.1083  -22.0900 H   0  0  0  0  0  0  0  0  0  0  0  0
  1  2  2  0
  2  3  1  0
  3  4  1  0
  4  5  2  0
  5  6  1  0
  6  7  2  0
  7  8  1  0
  8  9  2  0
  9 10  1  0
 10 11  2  0
 11 12  1  0
 12 13  2  0
  2 14  1  0
 14 15  1  0
 15 16  1  0
 16 17  1  0
 17 18  1  0
 18 19  1  0
 19 20  1  0
 20 21  1  0
 21 22  2  0
 22 23  1  0
 23 24  2  0
 24 25  1  0
 25 26  2  0
 13  4  1  0
 19 14  1  0
 26 21  1  0
 13  8  1  0
  3 27  1  0
  3 28  1  0
  5 29  1  0
  7 30  1  0
  9 31  1  0
 10 32  1  0
 11 33  1  0
 12 34  1  0
 15 35  1  0
 15 36  1  0
 16 37  1  0
 16 38  1  0
 17 39  1  0
 17 40  1  0
 18 41  1  0
 18 42  1  0
 19 43  1  1
 20 44  1  0
 20 45  1  0
 22 46  1  0
 23 47  1  0
 24 48  1  0
 25 49  1  0
 26 50  1  0
M  END
$$$$

     RDKit          3D

 40 43  0  0  0  0  0  0  0  0999 V2000
   -7.7685    1.3166  -25.3955 C   0  0  0  0  0  0  0  0  0  0  0  0
   -8.5386    0.4738  -24.3757 C   0  0  1  0  0  0  0  0  0  0  0  0
  -10.0386    0.2838  -24.6358 C   0  0  0  0  0  0  0  0  0  0  0  0
  -10.7052   -0.3337  -23.5496 O   0  0  0  0  0  0  0  0  0  0  0  0
  -10.1964   -1.5915  -23.1748 C   0  0  0  0  0  0  0  0  0  0  0  0
   -8.6828   -1.5656  -22.9761 C   0  0  2  0  0  0  0  0  0  0  0  0
   -7.9833   -0.9364  -24.1921 C   0  0  0  0  0  0  0  0  0  0  0  0
   -8.1650   -2.8746  -22.6157 N   0  0  0  0  0  0  0  0  0  0  0  0
   -7.1411   -2.7738  -21.6922 C   0  0  0  0  0  0  0  0  0  0  0  0
   -6.2848   -3.5833  -21.4327 O   0  0  0  0  0  0  0  0  0  0  0  0
   -7.2666   -1.4971  -21.1233 N   0  0  0  0  0  0  0  0  0  0  0  0
   -6.4720   -0.9922  -20.0599 C   0  0  0  0  0  0  0  0  0  0  0  0
   -6.8555   -1.2498  -18.7739 C   0  0  0  0  0  0  0  0  0  0  0  0
   -6.2064   -0.7927  -17.6754 N   0  0  0  0  0  0  0  0  0  0  0  0
   -5.1659   -0.0166  -17.8583 C   0  0  0  0  0  0  0  0  0  0  0  0
   -4.6862    0.3623  -19.1471 C   0  0  0  0  0  0  0  0  0  0  0  0
   -3.6042    1.2649  -19.3024 C   0  0  0  0  0  0  0  0  0  0  0  0
   -3.1640    1.6144  -20.5509 C   0  0  0  0  0  0  0  0  0  0  0  0
   -3.7649    1.0517  -21.6972 C   0  0  0  0  0  0  0  0  0  0  0  0
   -4.8236    0.1877  -21.5748 C   0  0  0  0  0  0  0  0  0  0  0  0
   -5.3338   -0.1547  -20.2903 C   0  0  0  0  0  0  0  0  0  0  0  0
   -8.2832   -0.7742  -21.7371 C   0  0  0  0  0  0  0  0  0  0  0  0
   -8.7170    0.2800  -21.3596 O   0  0  0  0  0  0  0  0  0  0  0  0
   -8.2048    2.3174  -25.4945 H   0  0  0  0  0  0  0  0  0  0  0  0
   -6.7356    1.4657  -25.0526 H   0  0  0  0  0  0  0  0  0  0  0  0
   -7.7277    0.8591  -26.3892 H   0  0  0  0  0  0  0  0  0  0  0  0
   -8.4439    0.9977  -23.4219 H   0  0  0  0  0  0  0  0  0  0  0  0
  -10.1873   -0.3063  -25.5576 H   0  0  0  0  0  0  0  0  0  0  0  0
  -10.5606    1.2344  -24.7571 H   0  0  0  0  0  0  0  0  0  0  0  0
  -10.4108   -2.3807  -23.9103 H   0  0  0  0  0  0  0  0  0  0  0  0
  -10.6643   -1.8841  -22.2302 H   0  0  0  0  0  0  0  0  0  0  0  0
   -8.1368   -1.5577  -25.0853 H   0  0  0  0  0  0  0  0  0  0  0  0
   -6.9008   -0.9279  -24.0202 H   0  0  0  0  0  0  0  0  0  0  0  0
   -8.0178   -3.5508  -23.3493 H   0  0  0  0  0  0  0  0  0  0  0  0
   -7.7420   -1.8568  -18.6036 H   0  0  0  0  0  0  0  0  0  0  0  0
   -4.6685    0.3826  -16.9706 H   0  0  0  0  0  0  0  0  0  0  0  0
   -3.1405    1.6724  -18.4108 H   0  0  0  0  0  0  0  0  0  0  0  0
   -2.3549    2.3291  -20.6675 H   0  0  0  0  0  0  0  0  0  0  0  0
   -3.3863    1.3127  -22.6821 H   0  0  0  0  0  0  0  0  0  0  0  0
   -5.2896   -0.2337  -22.4594 H   0  0  0  0  0  0  0  0  0  0  0  0
  1  2  1  0
  2  3  1  0
  3  4  1  0
  4  5  1  0
  5  6  1  0
  6  7  1  0
  6  8  1  1
  8  9  1  0
  9 10  2  0
  9 11  1  0
 11 12  1  0
 12 13  2  0
 13 14  1  0
 14 15  2  0
 15 16  1  0
 16 17  2  0
 17 18  1  0
 18 19  2  0
 19 20  1  0
 20 21  2  0
 11 22  1  0
 22 23  2  0
  7  2  1  0
 21 12  1  0
 22  6  1  0
 21 16  1  0
  1 24  1  0
  1 25  1  0
  1 26  1  0
  2 27  1  1
  3 28  1  0
  3 29  1  0
  5 30  1  0
  5 31  1  0
  7 32  1  0
  7 33  1  0
  8 34  1  0
 13 35  1  0
 15 36  1  0
 17 37  1  0
 18 38  1  0
 19 39  1  0
 20 40  1  0
M  END
$$$$

     RDKit          3D

 45 49  0  0  0  0  0  0  0  0999 V2000
    6.7671   -3.7462   23.9379 C   0  0  0  0  0  0  0  0  0  0  0  0
    6.8912   -2.6435   23.0121 N   0  0  0  0  0  0  0  0  0  0  0  0
    5.9870   -2.4289   22.0064 C   0  0  0  0  0  0  0  0  0  0  0  0
    4.9891   -3.0599   21.7432 O   0  0  0  0  0  0  0  0  0  0  0  0
    6.4412   -1.2940   21.3124 N   0  0  0  0  0  0  0  0  0  0  0  0
    5.7540   -0.7439   20.1985 C   0  0  0  0  0  0  0  0  0  0  0  0
    6.1905   -1.0231   18.9316 C   0  0  0  0  0  0  0  0  0  0  0  0
    5.5872   -0.5889   17.7967 N   0  0  0  0  0  0  0  0  0  0  0  0
    4.5184    0.1600   17.9389 C   0  0  0  0  0  0  0  0  0  0  0  0
    3.9559    0.5204   19.1977 C   0  0  0  0  0  0  0  0  0  0  0  0
    2.7932    1.3266   19.2991 C   0  0  0  0  0  0  0  0  0  0  0  0
    2.2879    1.6662   20.5227 C   0  0  0  0  0  0  0  0  0  0  0  0
    2.9140    1.2092   21.7033 C   0  0  0  0  0  0  0  0  0  0  0  0
    4.0387    0.4245   21.6364 C   0  0  0  0  0  0  0  0  0  0  0  0
    4.5860    0.0600   20.3740 C   0  0  0  0  0  0  0  0  0  0  0  0
    7.6608   -0.8392   21.8013 C   0  0  0  0  0  0  0  0  0  0  0  0
    8.2668    0.1341   21.4334 O   0  0  0  0  0  0  0  0  0  0  0  0
    8.0704   -1.8292   22.8710 C   0  0  0  0  0  0  0  0  0  0  0  0
    9.4206   -2.5322   22.5683 C   0  0  0  0  0  0  0  0  0  0  0  0
   10.0031   -1.8896   23.7508 N   0  0  0  0  0  0  0  0  0  0  0  0
   11.0272   -2.7877   24.7079 S   0  0  0  0  0  0  0  0  0  0  0  0
   11.6629   -1.8695   25.6333 O   0  0  0  0  0  0  0  0  0  0  0  0
   11.8322   -3.5613   23.7789 O   0  0  0  0  0  0  0  0  0  0  0  0
    9.9837   -3.8724   25.6228 C   0  0  0  0  0  0  0  0  0  0  0  0
   10.4241   -5.1427   25.8154 C   0  0  0  0  0  0  0  0  0  0  0  0
   10.4291   -5.2072   26.0185 C   0  0  0  0  0  0  0  0  0  0  0  0
    8.7309   -1.2111   24.1241 C   0  0  0  0  0  0  0  0  0  0  0  0
    5.7412   -3.7667   24.3099 H   0  0  0  0  0  0  0  0  0  0  0  0
    6.9932   -4.7080   23.4600 H   0  0  0  0  0  0  0  0  0  0  0  0
    7.4434   -3.5944   24.7807 H   0  0  0  0  0  0  0  0  0  0  0  0
    7.0736   -1.6424   18.7952 H   0  0  0  0  0  0  0  0  0  0  0  0
    4.0434    0.5245   17.0281 H   0  0  0  0  0  0  0  0  0  0  0  0
    2.3272    1.6645   18.3821 H   0  0  0  0  0  0  0  0  0  0  0  0
    1.4066    2.2978   20.6000 H   0  0  0  0  0  0  0  0  0  0  0  0
    2.5047    1.4879   22.6701 H   0  0  0  0  0  0  0  0  0  0  0  0
    4.5218    0.0886   22.5492 H   0  0  0  0  0  0  0  0  0  0  0  0
    9.9053   -2.2016   21.6470 H   0  0  0  0  0  0  0  0  0  0  0  0
    9.3850   -3.6266   22.6028 H   0  0  0  0  0  0  0  0  0  0  0  0
    9.2671   -3.2738   26.2008 H   0  0  0  0  0  0  0  0  0  0  0  0
    9.9221   -6.2581   25.4069 H   0  0  0  0  0  0  0  0  0  0  0  0
   10.4113   -5.6769   24.5939 H   0  0  0  0  0  0  0  0  0  0  0  0
   10.2326   -5.3823   27.7164 H   0  0  0  0  0  0  0  0  0  0  0  0
   11.6229   -5.6620   25.7790 H   0  0  0  0  0  0  0  0  0  0  0  0
    8.8481   -0.1282   24.0706 H   0  0  0  0  0  0  0  0  0  0  0  0
    8.2983   -1.4968   25.0895 H   0  0  0  0  0  0  0  0  0  0  0  0
  1  2  1  0
  2  3  1  0
  3  4  2  0
  3  5  1  0
  5  6  1  0
  6  7  2  0
  7  8  1  0
  8  9  2  0
  9 10  1  0
 10 11  2  0
 11 12  1  0
 12 13  2  0
 13 14  1  0
 14 15  2  0
  5 16  1  0
 16 17  2  0
 16 18  1  0
 18 19  1  0
 19 20  1  0
 20 21  1  0
 21 22  2  0
 21 23  2  0
 21 24  1  0
 24 25  1  0
 25 26  1  0
 20 27  1  0
 18  2  1  0
 26 24  1  0
 15  6  1  0
 27 18  1  0
 15 10  1  0
  1 28  1  0
  1 29  1  0
  1 30  1  0
  7 31  1  0
  9 32  1  0
 11 33  1  0
 12 34  1  0
 13 35  1  0
 14 36  1  0
 19 37  1  0
 19 38  1  0
 24 39  1  0
 25 40  1  0
 25 41  1  0
 26 42  1  0
 26 43  1  0
 27 44  1  0
 27 45  1  0
M  END
$$$$

     RDKit          3D

 46 48  0  0  0  0  0  0  0  0999 V2000
  -13.9000   -2.8876  -22.6635 C   0  0  0  0  0  0  0  0  0  0  0  0
  -12.4872   -2.5319  -23.1119 C   0  0  0  0  0  0  0  0  0  0  0  0
  -12.2282   -1.0390  -22.9266 C   0  0  0  0  0  0  0  0  0  0  0  0
  -10.8165   -0.6671  -23.3760 C   0  0  1  0  0  0  0  0  0  0  0  0
  -10.6343    0.8508  -23.4313 C   0  0  0  0  0  0  0  0  0  0  0  0
   -9.8492   -1.4500  -22.5688 N   0  0  0  0  0  0  0  0  0  0  0  0
   -8.8789   -0.8345  -21.7995 C   0  0  0  0  0  0  0  0  0  0  0  0
   -8.9357    0.3280  -21.4562 O   0  0  0  0  0  0  0  0  0  0  0  0
   -7.6421   -1.6615  -21.4092 C   0  0  0  0  0  0  0  0  0  0  0  0
   -6.8230   -1.0560  -20.2972 C   0  0  0  0  0  0  0  0  0  0  0  0
   -7.1671   -1.3157  -18.9961 C   0  0  0  0  0  0  0  0  0  0  0  0
   -6.4848   -0.9059  -17.8941 N   0  0  0  0  0  0  0  0  0  0  0  0
   -5.4066   -0.1867  -18.0922 C   0  0  0  0  0  0  0  0  0  0  0  0
   -4.9642    0.2265  -19.3841 C   0  0  0  0  0  0  0  0  0  0  0  0
   -3.8613    1.1041  -19.5578 C   0  0  0  0  0  0  0  0  0  0  0  0
   -3.4182    1.4204  -20.8153 C   0  0  0  0  0  0  0  0  0  0  0  0
   -4.0729    0.8958  -21.9518 C   0  0  0  0  0  0  0  0  0  0  0  0
   -5.1959    0.1123  -21.8122 C   0  0  0  0  0  0  0  0  0  0  0  0
   -5.6824   -0.2261  -20.5212 C   0  0  0  0  0  0  0  0  0  0  0  0
   -9.9793   -2.9175  -22.6812 C   0  0  2  0  0  0  0  0  0  0  0  0
   -9.4492   -3.4753  -24.0037 C   0  0  0  0  0  0  0  0  0  0  0  0
  -11.4221   -3.3969  -22.4206 C   0  0  0  0  0  0  0  0  0  0  0  0
  -14.1251   -3.9473  -22.8192 H   0  0  0  0  0  0  0  0  0  0  0  0
  -14.0266   -2.6708  -21.5963 H   0  0  0  0  0  0  0  0  0  0  0  0
  -14.6391   -2.2944  -23.2126 H   0  0  0  0  0  0  0  0  0  0  0  0
  -12.3919   -2.7224  -24.1914 H   0  0  0  0  0  0  0  0  0  0  0  0
  -12.9635   -0.4520  -23.4964 H   0  0  0  0  0  0  0  0  0  0  0  0
  -12.3779   -0.7505  -21.8827 H   0  0  0  0  0  0  0  0  0  0  0  0
  -10.7034   -1.0224  -24.4111 H   0  0  0  0  0  0  0  0  0  0  0  0
  -10.8870    1.3196  -22.4780 H   0  0  0  0  0  0  0  0  0  0  0  0
  -11.3045    1.2431  -24.2051 H   0  0  0  0  0  0  0  0  0  0  0  0
   -9.6116    1.1471  -23.6835 H   0  0  0  0  0  0  0  0  0  0  0  0
   -7.9402   -2.6699  -21.1039 H   0  0  0  0  0  0  0  0  0  0  0  0
   -7.0360   -1.7649  -22.3182 H   0  0  0  0  0  0  0  0  0  0  0  0
   -8.0673   -1.8954  -18.7990 H   0  0  0  0  0  0  0  0  0  0  0  0
   -4.8603    0.1546  -17.2070 H   0  0  0  0  0  0  0  0  0  0  0  0
   -3.3809    1.4991  -18.6660 H   0  0  0  0  0  0  0  0  0  0  0  0
   -2.5625    2.0857  -20.9294 H   0  0  0  0  0  0  0  0  0  0  0  0
   -3.6898    1.0980  -22.9502 H   0  0  0  0  0  0  0  0  0  0  0  0
   -5.7416   -0.2361  -22.6852 H   0  0  0  0  0  0  0  0  0  0  0  0
   -9.3648   -3.3265  -21.8786 H   0  0  0  0  0  0  0  0  0  0  0  0
   -8.4073   -3.1844  -24.1650 H   0  0  0  0  0  0  0  0  0  0  0  0
  -10.0394   -3.1377  -24.8622 H   0  0  0  0  0  0  0  0  0  0  0  0
   -9.4905   -4.5712  -23.9871 H   0  0  0  0  0  0  0  0  0  0  0  0
  -11.5103   -4.4313  -22.7802 H   0  0  0  0  0  0  0  0  0  0  0  0
  -11.5820   -3.4732  -21.3385 H   0  0  0  0  0  0  0  0  0  0  0  0
  1  2  1  0
  2  3  1  0
  3  4  1  0
  4  5  1  0
  4  6  1  0
  6  7  1  0
  7  8  2  0
  7  9  1  0
  9 10  1  0
 10 11  2  0
 11 12  1  0
 12 13  2  0
 13 14  1  0
 14 15  2  0
 15 16  1  0
 16 17  2  0
 17 18  1  0
 18 19  2  0
  6 20  1  0
 20 21  1  0
 20 22  1  0
 22  2  1  0
 19 10  1  0
 19 14  1  0
  1 23  1  0
  1 24  1  0
  1 25  1  0
  2 26  1  0
  3 27  1  0
  3 28  1  0
  4 29  1  6
  5 30  1  0
  5 31  1  0
  5 32  1  0
  9 33  1  0
  9 34  1  0
 11 35  1  0
 13 36  1  0
 15 37  1  0
 16 38  1  0
 17 39  1  0
 18 40  1  0
 20 41  1  1
 21 42  1  0
 21 43  1  0
 21 44  1  0
 22 45  1  0
 22 46  1  0
M  END
$$$$

     RDKit          3D

 67 71  0  0  0  0  0  0  0  0999 V2000
   -7.0192    3.6324  -22.4815 C   0  0  0  0  0  0  0  0  0  0  0  0
   -7.7843    2.6799  -23.2609 N   0  0  0  0  0  0  0  0  0  0  0  0
   -7.4940    2.5202  -24.5694 C   0  0  0  0  0  0  0  0  0  0  0  0
   -6.7241    3.2489  -25.1889 O   0  0  0  0  0  0  0  0  0  0  0  0
   -8.1628    1.3642  -25.3185 C   0  0  0  0  0  0  0  0  0  0  0  0
   -8.9888    0.4752  -24.5421 N   0  0  0  0  0  0  0  0  0  0  0  0
   -8.5306   -0.8794  -24.2836 C   0  0  0  0  0  0  0  0  0  0  0  0
   -9.0832   -1.4203  -22.9404 C   0  0  2  0  0  0  0  0  0  0  0  0
   -8.4767   -0.5824  -21.7864 C   0  0  0  0  0  0  0  0  0  0  0  0
   -8.7579    0.5680  -21.5130 O   0  0  0  0  0  0  0  0  0  0  0  0
   -7.5190   -1.3272  -21.1408 N   0  0  0  0  0  0  0  0  0  0  0  0
   -6.6659   -0.7989  -20.1253 C   0  0  0  0  0  0  0  0  0  0  0  0
   -6.8894   -1.1532  -18.8175 C   0  0  0  0  0  0  0  0  0  0  0  0
   -6.1196   -0.7694  -17.7687 N   0  0  0  0  0  0  0  0  0  0  0  0
   -5.0940    0.0068  -18.0183 C   0  0  0  0  0  0  0  0  0  0  0  0
   -4.7492    0.4662  -19.3215 C   0  0  0  0  0  0  0  0  0  0  0  0
   -3.6648    1.3596  -19.5308 C   0  0  0  0  0  0  0  0  0  0  0  0
   -3.3313    1.7577  -20.7946 C   0  0  0  0  0  0  0  0  0  0  0  0
   -4.0605    1.2830  -21.9076 C   0  0  0  0  0  0  0  0  0  0  0  0
   -5.1417    0.4535  -21.7274 C   0  0  0  0  0  0  0  0  0  0  0  0
   -5.5351    0.0375  -20.4228 C   0  0  0  0  0  0  0  0  0  0  0  0
   -7.2433   -2.5794  -21.8173 C   0  0  0  0  0  0  0  0  0  0  0  0
   -8.5495   -2.8330  -22.5825 C   0  0  2  0  0  0  0  0  0  0  0  0
   -8.3353   -3.8320  -23.7085 C   0  0  0  0  0  0  0  0  0  0  0  0
   -9.8382   -4.4459  -24.4738 S   0  0  0  0  0  0  0  0  0  0  0  0
  -10.5928   -5.1712  -23.4606 O   0  0  0  0  0  0  0  0  0  0  0  0
  -10.4810   -3.4167  -25.2697 O   0  0  0  0  0  0  0  0  0  0  0  0
   -9.2367   -5.5459  -25.5622 N   0  0  0  0  0  0  0  0  0  0  0  0
   -8.6533   -5.0242  -26.7856 C   0  0  0  0  0  0  0  0  0  0  0  0
   -8.6499   -6.7660  -25.0448 C   0  0  0  0  0  0  0  0  0  0  0  0
  -10.5912   -1.2808  -23.0220 C   0  0  0  0  0  0  0  0  0  0  0  0
  -11.4830   -2.2326  -22.5186 C   0  0  0  0  0  0  0  0  0  0  0  0
  -12.8338   -1.9448  -22.5025 C   0  0  0  0  0  0  0  0  0  0  0  0
  -13.6624   -2.8319  -21.9252 F   0  0  0  0  0  0  0  0  0  0  0  0
  -13.3776   -0.7756  -23.0215 C   0  0  0  0  0  0  0  0  0  0  0  0
  -12.5054    0.1344  -23.5813 C   0  0  0  0  0  0  0  0  0  0  0  0
  -11.1366   -0.1241  -23.6014 C   0  0  0  0  0  0  0  0  0  0  0  0
  -10.2560    0.8933  -24.2498 C   0  0  0  0  0  0  0  0  0  0  0  0
  -10.6377    2.0321  -24.4864 O   0  0  0  0  0  0  0  0  0  0  0  0
   -7.1451    3.3857  -21.4231 H   0  0  0  0  0  0  0  0  0  0  0  0
   -5.9606    3.5559  -22.7450 H   0  0  0  0  0  0  0  0  0  0  0  0
   -7.3211    4.6731  -22.6482 H   0  0  0  0  0  0  0  0  0  0  0  0
   -8.3056    1.9772  -22.7422 H   0  0  0  0  0  0  0  0  0  0  0  0
   -7.3540    0.7890  -25.7750 H   0  0  0  0  0  0  0  0  0  0  0  0
   -8.7457    1.7997  -26.1354 H   0  0  0  0  0  0  0  0  0  0  0  0
   -7.4363   -0.8717  -24.2483 H   0  0  0  0  0  0  0  0  0  0  0  0
   -8.8589   -1.5429  -25.0928 H   0  0  0  0  0  0  0  0  0  0  0  0
   -7.7458   -1.7782  -18.5676 H   0  0  0  0  0  0  0  0  0  0  0  0
   -4.4891    0.3371  -17.1721 H   0  0  0  0  0  0  0  0  0  0  0  0
   -3.1147    1.7174  -18.6628 H   0  0  0  0  0  0  0  0  0  0  0  0
   -2.5058    2.4437  -20.9534 H   0  0  0  0  0  0  0  0  0  0  0  0
   -3.7879    1.6076  -22.9098 H   0  0  0  0  0  0  0  0  0  0  0  0
   -5.7079    0.1178  -22.5922 H   0  0  0  0  0  0  0  0  0  0  0  0
   -7.0089   -3.3532  -21.0813 H   0  0  0  0  0  0  0  0  0  0  0  0
   -6.3880   -2.4925  -22.5113 H   0  0  0  0  0  0  0  0  0  0  0  0
   -9.2434   -3.2720  -21.8623 H   0  0  0  0  0  0  0  0  0  0  0  0
   -7.8136   -4.7218  -23.3442 H   0  0  0  0  0  0  0  0  0  0  0  0
   -7.7216   -3.4075  -24.5027 H   0  0  0  0  0  0  0  0  0  0  0  0
   -8.6653   -5.8232  -27.5298 H   0  0  0  0  0  0  0  0  0  0  0  0
   -9.2719   -4.2032  -27.1454 H   0  0  0  0  0  0  0  0  0  0  0  0
   -7.6136   -4.6760  -26.6804 H   0  0  0  0  0  0  0  0  0  0  0  0
   -8.7673   -7.5492  -25.7978 H   0  0  0  0  0  0  0  0  0  0  0  0
   -9.1875   -7.0557  -24.1499 H   0  0  0  0  0  0  0  0  0  0  0  0
   -7.5834   -6.6873  -24.7877 H   0  0  0  0  0  0  0  0  0  0  0  0
  -11.1723   -3.1995  -22.1367 H   0  0  0  0  0  0  0  0  0  0  0  0
  -14.4488   -0.6077  -22.9609 H   0  0  0  0  0  0  0  0  0  0  0  0
  -12.8608    1.0655  -24.0074 H   0  0  0  0  0  0  0  0  0  0  0  0
  1  2  1  0
  2  3  1  0
  3  4  2  0
  3  5  1  0
  5  6  1  0
  6  7  1  0
  8  7  1  6
  8  9  1  0
  9 10  2  0
  9 11  1  0
 11 12  1  0
 12 13  2  0
 13 14  1  0
 14 15  2  0
 15 16  1  0
 16 17  2  0
 17 18  1  0
 18 19  2  0
 19 20  1  0
 20 21  2  0
 11 22  1  0
 22 23  1  0
 23 24  1  0
 24 25  1  0
 25 26  2  0
 25 27  2  0
 25 28  1  0
 28 29  1  0
 28 30  1  0
  8 31  1  0
 31 32  2  0
 32 33  1  0
 33 34  1  0
 33 35  2  0
 35 36  1  0
 36 37  2  0
 37 38  1  0
 38 39  2  0
 38  6  1  0
 23  8  1  0
 37 31  1  0
 21 12  1  0
 21 16  1  0
  1 40  1  0
  1 41  1  0
  1 42  1  0
  2 43  1  0
  5 44  1  0
  5 45  1  0
  7 46  1  0
  7 47  1  0
 13 48  1  0
 15 49  1  0
 17 50  1  0
 18 51  1  0
 19 52  1  0
 20 53  1  0
 22 54  1  0
 22 55  1  0
 23 56  1  1
 24 57  1  0
 24 58  1  0
 29 59  1  0
 29 60  1  0
 29 61  1  0
 30 62  1  0
 30 63  1  0
 30 64  1  0
 32 65  1  0
 35 66  1  0
 36 67  1  0
M  END
$$$$

     RDKit          3D

 43 45  0  0  0  0  0  0  0  0999 V2000
  -13.6196   -3.2413  -22.5290 C   0  0  0  0  0  0  0  0  0  0  0  0
  -12.3128   -2.7726  -23.1725 C   0  0  1  0  0  0  0  0  0  0  0  0
  -12.2578   -1.2414  -23.1209 C   0  0  0  0  0  0  0  0  0  0  0  0
  -10.9007   -0.7173  -23.5511 C   0  0  0  0  0  0  0  0  0  0  0  0
   -9.8396   -1.3544  -22.7844 N   0  0  0  0  0  0  0  0  0  0  0  0
   -9.0044   -0.5292  -22.0640 C   0  0  0  0  0  0  0  0  0  0  0  0
   -9.3979    0.5032  -21.5486 O   0  0  0  0  0  0  0  0  0  0  0  0
   -7.5334   -0.8891  -22.0699 C   0  0  0  0  0  0  0  0  0  0  0  0
   -6.7914   -0.6723  -20.7805 C   0  0  0  0  0  0  0  0  0  0  0  0
   -7.2509   -1.1676  -19.5883 C   0  0  0  0  0  0  0  0  0  0  0  0
   -6.6470   -1.0535  -18.3808 N   0  0  0  0  0  0  0  0  0  0  0  0
   -5.4914   -0.4469  -18.3736 C   0  0  0  0  0  0  0  0  0  0  0  0
   -4.8764    0.0977  -19.5235 C   0  0  0  0  0  0  0  0  0  0  0  0
   -3.6401    0.7722  -19.4263 C   0  0  0  0  0  0  0  0  0  0  0  0
   -2.9969    1.2038  -20.5530 C   0  0  0  0  0  0  0  0  0  0  0  0
   -3.5791    0.9848  -21.8226 C   0  0  0  0  0  0  0  0  0  0  0  0
   -4.8013    0.3715  -21.9332 C   0  0  0  0  0  0  0  0  0  0  0  0
   -5.5119   -0.0499  -20.7776 C   0  0  0  0  0  0  0  0  0  0  0  0
   -9.7283   -2.8130  -22.8003 C   0  0  2  0  0  0  0  0  0  0  0  0
   -9.0616   -3.3925  -24.0483 C   0  0  0  0  0  0  0  0  0  0  0  0
  -11.1018   -3.4357  -22.4928 C   0  0  0  0  0  0  0  0  0  0  0  0
  -14.4819   -2.7532  -22.9985 H   0  0  0  0  0  0  0  0  0  0  0  0
  -13.6199   -2.9569  -21.4679 H   0  0  0  0  0  0  0  0  0  0  0  0
  -13.7592   -4.3277  -22.5911 H   0  0  0  0  0  0  0  0  0  0  0  0
  -12.2992   -3.0740  -24.2304 H   0  0  0  0  0  0  0  0  0  0  0  0
  -12.4754   -0.8970  -22.1024 H   0  0  0  0  0  0  0  0  0  0  0  0
  -13.0426   -0.8204  -23.7655 H   0  0  0  0  0  0  0  0  0  0  0  0
  -10.7444   -0.9101  -24.6261 H   0  0  0  0  0  0  0  0  0  0  0  0
  -10.8120    0.3579  -23.3686 H   0  0  0  0  0  0  0  0  0  0  0  0
   -7.1145   -0.2655  -22.8692 H   0  0  0  0  0  0  0  0  0  0  0  0
   -7.4292   -1.9196  -22.4146 H   0  0  0  0  0  0  0  0  0  0  0  0
   -8.1810   -1.7051  -19.5575 H   0  0  0  0  0  0  0  0  0  0  0  0
   -4.9773   -0.3324  -17.4197 H   0  0  0  0  0  0  0  0  0  0  0  0
   -3.2273    0.9014  -18.4293 H   0  0  0  0  0  0  0  0  0  0  0  0
   -2.0325    1.6956  -20.4742 H   0  0  0  0  0  0  0  0  0  0  0  0
   -3.0659    1.3294  -22.7198 H   0  0  0  0  0  0  0  0  0  0  0  0
   -5.2160    0.2152  -22.9254 H   0  0  0  0  0  0  0  0  0  0  0  0
   -9.0674   -3.0736  -21.9639 H   0  0  0  0  0  0  0  0  0  0  0  0
   -8.0890   -2.9249  -24.2348 H   0  0  0  0  0  0  0  0  0  0  0  0
   -9.6660   -3.2937  -24.9561 H   0  0  0  0  0  0  0  0  0  0  0  0
   -8.8754   -4.4587  -23.8746 H   0  0  0  0  0  0  0  0  0  0  0  0
  -11.2184   -3.4015  -21.4059 H   0  0  0  0  0  0  0  0  0  0  0  0
  -11.0716   -4.5028  -22.7491 H   0  0  0  0  0  0  0  0  0  0  0  0
  1  2  1  0
  2  3  1  0
  3  4  1  0
  4  5  1  0
  5  6  1  0
  6  7  2  0
  6  8  1  0
  8  9  1  0
  9 10  2  0
 10 11  1  0
 11 12  2  0
 12 13  1  0
 13 14  2  0
 14 15  1  0
 15 16  2  0
 16 17  1  0
 17 18  2  0
  5 19  1  0
 19 20  1  0
 19 21  1  0
 21  2  1  0
 18  9  1  0
 18 13  1  0
  1 22  1  0
  1 23  1  0
  1 24  1  0
  2 25  1  6
  3 26  1  0
  3 27  1  0
  4 28  1  0
  4 29  1  0
  8 30  1  0
  8 31  1  0
 10 32  1  0
 12 33  1  0
 14 34  1  0
 15 35  1  0
 16 36  1  0
 17 37  1  0
 19 38  1  1
 20 39  1  0
 20 40  1  0
 20 41  1  0
 21 42  1  0
 21 43  1  0
M  END
$$$$

     RDKit          3D

 60 65  0  0  0  0  0  0  0  0999 V2000
   -5.1108    5.0234  -22.1923 C   0  0  0  0  0  0  0  0  0  0  0  0
   -5.8849    4.0369  -23.0045 C   0  0  0  0  0  0  0  0  0  0  0  0
   -7.0858    3.5069  -22.5355 C   0  0  0  0  0  0  0  0  0  0  0  0
   -7.8179    2.6497  -23.2377 N   0  0  0  0  0  0  0  0  0  0  0  0
   -7.3080    2.2603  -24.4021 C   0  0  0  0  0  0  0  0  0  0  0  0
   -8.1282    1.3692  -25.2939 C   0  0  0  0  0  0  0  0  0  0  0  0
   -8.9721    0.4486  -24.5724 N   0  0  0  0  0  0  0  0  0  0  0  0
   -8.4795   -0.8847  -24.2815 C   0  0  0  0  0  0  0  0  0  0  0  0
   -9.0611   -1.4331  -22.9482 C   0  0  2  0  0  0  0  0  0  0  0  0
   -8.5032   -0.6010  -21.7570 C   0  0  0  0  0  0  0  0  0  0  0  0
   -8.8683    0.4935  -21.4146 O   0  0  0  0  0  0  0  0  0  0  0  0
   -7.4908   -1.3327  -21.1500 N   0  0  0  0  0  0  0  0  0  0  0  0
   -6.6429   -0.8196  -20.1286 C   0  0  0  0  0  0  0  0  0  0  0  0
   -6.8568   -1.1904  -18.8241 C   0  0  0  0  0  0  0  0  0  0  0  0
   -6.0672   -0.8342  -17.7792 N   0  0  0  0  0  0  0  0  0  0  0  0
   -5.0424   -0.0624  -18.0370 C   0  0  0  0  0  0  0  0  0  0  0  0
   -4.7208    0.4265  -19.3340 C   0  0  0  0  0  0  0  0  0  0  0  0
   -3.6477    1.3315  -19.5376 C   0  0  0  0  0  0  0  0  0  0  0  0
   -3.3297    1.7512  -20.7965 C   0  0  0  0  0  0  0  0  0  0  0  0
   -4.0692    1.2938  -21.9154 C   0  0  0  0  0  0  0  0  0  0  0  0
   -5.1510    0.4660  -21.7368 C   0  0  0  0  0  0  0  0  0  0  0  0
   -5.5166    0.0199  -20.4336 C   0  0  0  0  0  0  0  0  0  0  0  0
   -7.2036   -2.5810  -21.8292 C   0  0  0  0  0  0  0  0  0  0  0  0
   -8.5218   -2.8364  -22.5731 C   0  0  2  0  0  0  0  0  0  0  0  0
   -8.4252   -3.8457  -23.7063 C   0  0  0  0  0  0  0  0  0  0  0  0
  -10.5753   -1.3307  -23.0787 C   0  0  0  0  0  0  0  0  0  0  0  0
  -11.4793   -2.3059  -22.6289 C   0  0  0  0  0  0  0  0  0  0  0  0
  -12.8329   -2.0180  -22.6268 C   0  0  0  0  0  0  0  0  0  0  0  0
  -13.6888   -2.9300  -22.1345 F   0  0  0  0  0  0  0  0  0  0  0  0
  -13.3635   -0.8173  -23.0905 C   0  0  0  0  0  0  0  0  0  0  0  0
  -12.4817    0.1113  -23.6005 C   0  0  0  0  0  0  0  0  0  0  0  0
  -11.1157   -0.1603  -23.6321 C   0  0  0  0  0  0  0  0  0  0  0  0
  -10.2351    0.8652  -24.2655 C   0  0  0  0  0  0  0  0  0  0  0  0
  -10.6337    2.0039  -24.4862 O   0  0  0  0  0  0  0  0  0  0  0  0
   -6.0774    2.7337  -24.8389 C   0  0  0  0  0  0  0  0  0  0  0  0
   -5.3693    3.6372  -24.1726 N   0  0  0  0  0  0  0  0  0  0  0  0
   -5.6377    5.9791  -22.0979 H   0  0  0  0  0  0  0  0  0  0  0  0
   -4.1319    5.1807  -22.6469 H   0  0  0  0  0  0  0  0  0  0  0  0
   -4.9837    4.6234  -21.1853 H   0  0  0  0  0  0  0  0  0  0  0  0
   -7.4628    3.8045  -21.5591 H   0  0  0  0  0  0  0  0  0  0  0  0
   -7.4640    0.8250  -25.9747 H   0  0  0  0  0  0  0  0  0  0  0  0
   -8.7888    1.9991  -25.8946 H   0  0  0  0  0  0  0  0  0  0  0  0
   -7.3851   -0.8433  -24.2398 H   0  0  0  0  0  0  0  0  0  0  0  0
   -8.7685   -1.5719  -25.0886 H   0  0  0  0  0  0  0  0  0  0  0  0
   -7.7182   -1.8110  -18.5766 H   0  0  0  0  0  0  0  0  0  0  0  0
   -4.3949    0.2178  -17.2046 H   0  0  0  0  0  0  0  0  0  0  0  0
   -3.0934    1.6749  -18.6671 H   0  0  0  0  0  0  0  0  0  0  0  0
   -2.5043    2.4419  -20.9396 H   0  0  0  0  0  0  0  0  0  0  0  0
   -3.7779    1.6042  -22.9140 H   0  0  0  0  0  0  0  0  0  0  0  0
   -5.7331    0.1450  -22.5981 H   0  0  0  0  0  0  0  0  0  0  0  0
   -6.3407   -2.4879  -22.5158 H   0  0  0  0  0  0  0  0  0  0  0  0
   -6.9633   -3.3574  -21.0937 H   0  0  0  0  0  0  0  0  0  0  0  0
   -9.2053   -3.2075  -21.7986 H   0  0  0  0  0  0  0  0  0  0  0  0
   -8.1362   -4.8382  -23.3435 H   0  0  0  0  0  0  0  0  0  0  0  0
   -9.3886   -3.9290  -24.2187 H   0  0  0  0  0  0  0  0  0  0  0  0
   -7.6772   -3.5307  -24.4430 H   0  0  0  0  0  0  0  0  0  0  0  0
  -11.1770   -3.2951  -22.2906 H   0  0  0  0  0  0  0  0  0  0  0  0
  -14.4347   -0.6481  -23.0448 H   0  0  0  0  0  0  0  0  0  0  0  0
  -12.8159    1.0739  -23.9704 H   0  0  0  0  0  0  0  0  0  0  0  0
   -5.6531    2.3638  -25.7670 H   0  0  0  0  0  0  0  0  0  0  0  0
  1  2  1  0
  2  3  2  0
  3  4  1  0
  4  5  2  0
  5  6  1  0
  6  7  1  0
  7  8  1  0
  9  8  1  6
  9 10  1  0
 10 11  2  0
 10 12  1  0
 12 13  1  0
 13 14  2  0
 14 15  1  0
 15 16  2  0
 16 17  1  0
 17 18  2  0
 18 19  1  0
 19 20  2  0
 20 21  1  0
 21 22  2  0
 12 23  1  0
 23 24  1  0
 24 25  1  0
  9 26  1  0
 26 27  2  0
 27 28  1  0
 28 29  1  0
 28 30  2  0
 30 31  1  0
 31 32  2  0
 32 33  1  0
 33 34  2  0
  5 35  1  0
 35 36  2  0
 36  2  1  0
 33  7  1  0
 24  9  1  0
 32 26  1  0
 22 13  1  0
 22 17  1  0
  1 37  1  0
  1 38  1  0
  1 39  1  0
  3 40  1  0
  6 41  1  0
  6 42  1  0
  8 43  1  0
  8 44  1  0
 14 45  1  0
 16 46  1  0
 18 47  1  0
 19 48  1  0
 20 49  1  0
 21 50  1  0
 23 51  1  0
 23 52  1  0
 24 53  1  1
 25 54  1  0
 25 55  1  0
 25 56  1  0
 27 57  1  0
 30 58  1  0
 31 59  1  0
 35 60  1  0
M  END
$$$$

     RDKit          3D

 44 47  0  0  0  0  0  0  0  0999 V2000
   -9.2598   -0.9545  -20.9266 O   0  0  0  0  0  0  0  0  0  0  0  0
   -8.5366   -1.4715  -21.7496 C   0  0  0  0  0  0  0  0  0  0  0  0
   -7.1405   -1.9520  -21.3575 C   0  0  0  0  0  0  0  0  0  0  0  0
   -6.4401   -1.1632  -20.2638 C   0  0  0  0  0  0  0  0  0  0  0  0
   -6.8165   -1.3420  -18.9519 C   0  0  0  0  0  0  0  0  0  0  0  0
   -6.1710   -0.8360  -17.8702 N   0  0  0  0  0  0  0  0  0  0  0  0
   -5.1141   -0.0982  -18.1006 C   0  0  0  0  0  0  0  0  0  0  0  0
   -4.6405    0.2337  -19.3975 C   0  0  0  0  0  0  0  0  0  0  0  0
   -3.5279    1.0906  -19.5889 C   0  0  0  0  0  0  0  0  0  0  0  0
   -3.1097    1.4131  -20.8492 C   0  0  0  0  0  0  0  0  0  0  0  0
   -3.7933    0.8957  -21.9713 C   0  0  0  0  0  0  0  0  0  0  0  0
   -4.8805    0.0702  -21.8110 C   0  0  0  0  0  0  0  0  0  0  0  0
   -5.3319   -0.2967  -20.5161 C   0  0  0  0  0  0  0  0  0  0  0  0
   -8.9831   -1.7409  -23.0530 N   0  0  0  0  0  0  0  0  0  0  0  0
   -8.2553   -1.0910  -24.1489 C   0  0  0  0  0  0  0  0  0  0  0  0
   -8.5456    0.4151  -24.1631 C   0  0  0  0  0  0  0  0  0  0  0  0
  -10.0539    0.7059  -24.2310 C   0  0  0  0  0  0  0  0  0  0  0  0
  -10.3174    2.1836  -24.0206 C   0  0  0  0  0  0  0  0  0  0  0  0
  -10.1307    3.2544  -25.0528 C   0  0  0  0  0  0  0  0  0  0  0  0
  -11.5145    2.8902  -24.5876 C   0  0  0  0  0  0  0  0  0  0  0  0
  -10.8442   -0.1001  -23.1958 C   0  0  0  0  0  0  0  0  0  0  0  0
  -10.4302   -1.5677  -23.2403 C   0  0  0  0  0  0  0  0  0  0  0  0
   -7.3335   -2.9653  -20.9687 H   0  0  0  0  0  0  0  0  0  0  0  0
   -6.5238   -2.0819  -22.2504 H   0  0  0  0  0  0  0  0  0  0  0  0
   -7.6990   -1.9374  -18.7248 H   0  0  0  0  0  0  0  0  0  0  0  0
   -4.5797    0.2868  -17.2332 H   0  0  0  0  0  0  0  0  0  0  0  0
   -3.0287    1.4883  -18.7093 H   0  0  0  0  0  0  0  0  0  0  0  0
   -2.2633    2.0782  -20.9943 H   0  0  0  0  0  0  0  0  0  0  0  0
   -3.4603    1.1635  -22.9676 H   0  0  0  0  0  0  0  0  0  0  0  0
   -5.3978   -0.3061  -22.6894 H   0  0  0  0  0  0  0  0  0  0  0  0
   -8.5989   -1.5593  -25.0792 H   0  0  0  0  0  0  0  0  0  0  0  0
   -7.1823   -1.2880  -24.0516 H   0  0  0  0  0  0  0  0  0  0  0  0
   -8.0287    0.9049  -24.9958 H   0  0  0  0  0  0  0  0  0  0  0  0
   -8.1272    0.8519  -23.2476 H   0  0  0  0  0  0  0  0  0  0  0  0
  -10.4074    0.3462  -25.2049 H   0  0  0  0  0  0  0  0  0  0  0  0
  -10.0328    2.4790  -23.0083 H   0  0  0  0  0  0  0  0  0  0  0  0
   -9.8232    2.9827  -26.0586 H   0  0  0  0  0  0  0  0  0  0  0  0
   -9.7154    4.1955  -24.7071 H   0  0  0  0  0  0  0  0  0  0  0  0
  -12.1495    2.3377  -25.2757 H   0  0  0  0  0  0  0  0  0  0  0  0
  -12.0491    3.5899  -23.9500 H   0  0  0  0  0  0  0  0  0  0  0  0
  -11.9190   -0.0213  -23.4039 H   0  0  0  0  0  0  0  0  0  0  0  0
  -10.6599    0.3018  -22.1943 H   0  0  0  0  0  0  0  0  0  0  0  0
  -10.9724   -2.1469  -22.4838 H   0  0  0  0  0  0  0  0  0  0  0  0
  -10.6589   -1.9873  -24.2348 H   0  0  0  0  0  0  0  0  0  0  0  0
  1  2  2  0
  2  3  1  0
  3  4  1  0
  4  5  2  0
  5  6  1  0
  6  7  2  0
  7  8  1  0
  8  9  2  0
  9 10  1  0
 10 11  2  0
 11 12  1  0
 12 13  2  0
  2 14  1  0
 14 15  1  0
 15 16  1  0
 16 17  1  0
 17 18  1  0
 18 19  1  0
 19 20  1  0
 17 21  1  0
 21 22  1  0
 13  4  1  0
 22 14  1  0
 13  8  1  0
 20 18  1  0
  3 23  1  0
  3 24  1  0
  5 25  1  0
  7 26  1  0
  9 27  1  0
 10 28  1  0
 11 29  1  0
 12 30  1  0
 15 31  1  0
 15 32  1  0
 16 33  1  0
 16 34  1  0
 17 35  1  0
 18 36  1  0
 19 37  1  0
 19 38  1  0
 20 39  1  0
 20 40  1  0
 21 41  1  0
 21 42  1  0
 22 43  1  0
 22 44  1  0
M  END
$$$$

     RDKit          3D

 38 41  0  0  0  0  0  0  0  0999 V2000
   -9.5563   -4.7675  -25.8548 C   0  0  0  0  0  0  0  0  0  0  0  0
   -9.5841   -3.8313  -24.6419 C   0  0  2  0  0  0  0  0  0  0  0  0
   -9.9156   -2.3929  -25.0772 C   0  0  0  0  0  0  0  0  0  0  0  0
  -10.0664   -1.4683  -23.8540 C   0  0  0  0  0  0  0  0  0  0  0  0
   -8.9737   -1.7075  -22.8482 C   0  0  0  0  0  0  0  0  0  0  0  0
   -8.5611   -0.9610  -21.7681 C   0  0  0  0  0  0  0  0  0  0  0  0
   -9.0423    0.1492  -21.4059 O   0  0  0  0  0  0  0  0  0  0  0  0
   -7.5104   -1.6121  -21.1257 N   0  0  0  0  0  0  0  0  0  0  0  0
   -6.6984   -1.0732  -20.0986 C   0  0  0  0  0  0  0  0  0  0  0  0
   -6.9762   -1.3348  -18.7365 C   0  0  0  0  0  0  0  0  0  0  0  0
   -6.2584   -0.8358  -17.7054 N   0  0  0  0  0  0  0  0  0  0  0  0
   -5.2549    0.0138  -18.0003 C   0  0  0  0  0  0  0  0  0  0  0  0
   -4.9150    0.3666  -19.3182 C   0  0  0  0  0  0  0  0  0  0  0  0
   -3.9290    1.3310  -19.5847 C   0  0  0  0  0  0  0  0  0  0  0  0
   -3.5950    1.6614  -20.8972 C   0  0  0  0  0  0  0  0  0  0  0  0
   -4.2108    1.0022  -21.9617 C   0  0  0  0  0  0  0  0  0  0  0  0
   -5.2244    0.0677  -21.7070 C   0  0  0  0  0  0  0  0  0  0  0  0
   -5.6108   -0.2275  -20.3890 C   0  0  0  0  0  0  0  0  0  0  0  0
   -7.2467   -2.7607  -21.8516 C   0  0  0  0  0  0  0  0  0  0  0  0
   -6.4014   -3.6060  -21.5790 O   0  0  0  0  0  0  0  0  0  0  0  0
   -8.1589   -2.8354  -22.8912 N   0  0  0  0  0  0  0  0  0  0  0  0
   -8.2230   -3.8593  -23.9248 C   0  0  0  0  0  0  0  0  0  0  0  0
   -9.3177   -5.7875  -25.5333 H   0  0  0  0  0  0  0  0  0  0  0  0
   -8.7996   -4.4410  -26.5783 H   0  0  0  0  0  0  0  0  0  0  0  0
  -10.5341   -4.7763  -26.3490 H   0  0  0  0  0  0  0  0  0  0  0  0
  -10.3601   -4.1696  -23.9443 H   0  0  0  0  0  0  0  0  0  0  0  0
  -10.8591   -2.3912  -25.6340 H   0  0  0  0  0  0  0  0  0  0  0  0
   -9.1210   -2.0186  -25.7379 H   0  0  0  0  0  0  0  0  0  0  0  0
  -10.0353   -0.4197  -24.1685 H   0  0  0  0  0  0  0  0  0  0  0  0
  -11.0333   -1.6701  -23.3747 H   0  0  0  0  0  0  0  0  0  0  0  0
   -7.8504   -1.9461  -18.5206 H   0  0  0  0  0  0  0  0  0  0  0  0
   -4.7679    0.5273  -17.1783 H   0  0  0  0  0  0  0  0  0  0  0  0
   -3.4385    1.8587  -18.7771 H   0  0  0  0  0  0  0  0  0  0  0  0
   -2.8620    2.4431  -21.0762 H   0  0  0  0  0  0  0  0  0  0  0  0
   -3.8964    1.2279  -22.9772 H   0  0  0  0  0  0  0  0  0  0  0  0
   -5.7351   -0.4244  -22.5281 H   0  0  0  0  0  0  0  0  0  0  0  0
   -7.4237   -3.6788  -24.6534 H   0  0  0  0  0  0  0  0  0  0  0  0
   -8.0833   -4.8477  -23.4745 H   0  0  0  0  0  0  0  0  0  0  0  0
  1  2  1  0
  2  3  1  0
  3  4  1  0
  4  5  1  0
  5  6  2  0
  6  7  1  0
  6  8  1  0
  8  9  1  0
  9 10  2  0
 10 11  1  0
 11 12  2  0
 12 13  1  0
 13 14  2  0
 14 15  1  0
 15 16  2  0
 16 17  1  0
 17 18  2  0
  8 19  1  0
 19 20  2  0
 19 21  1  0
 21 22  1  0
 22  2  1  0
 21  5  1  0
 18  9  1  0
 18 13  1  0
  1 23  1  0
  1 24  1  0
  1 25  1  0
  2 26  1  1
  3 27  1  0
  3 28  1  0
  4 29  1  0
  4 30  1  0
 10 31  1  0
 12 32  1  0
 14 33  1  0
 15 34  1  0
 16 35  1  0
 17 36  1  0
 22 37  1  0
 22 38  1  0
M  CHG  1   7  -1
M  END
$$$$

     RDKit          3D

 70 75  0  0  0  0  0  0  0  0999 V2000
   -8.4234    2.4900  -26.5812 O   0  0  0  0  0  0  0  0  0  0  0  0
   -7.7565    2.0417  -25.6640 C   0  0  0  0  0  0  0  0  0  0  0  0
   -7.4833    0.5472  -25.5005 C   0  0  0  0  0  0  0  0  0  0  0  0
   -8.3844   -0.0635  -24.4900 N   0  0  1  0  0  0  0  0  0  0  0  0
   -9.8264    0.0967  -24.9043 C   0  0  0  0  0  0  0  0  0  0  0  0
  -10.7791   -0.6440  -24.0014 C   0  0  0  0  0  0  0  0  0  0  0  0
  -12.1348   -0.3274  -24.0515 C   0  0  0  0  0  0  0  0  0  0  0  0
  -13.0732   -1.0853  -23.3676 C   0  0  0  0  0  0  0  0  0  0  0  0
  -12.6340   -2.1909  -22.6474 C   0  0  0  0  0  0  0  0  0  0  0  0
  -13.8052   -3.1832  -21.8227 Cl  0  0  0  0  0  0  0  0  0  0  0  0
  -11.2831   -2.5074  -22.5664 C   0  0  0  0  0  0  0  0  0  0  0  0
  -10.3382   -1.7002  -23.2008 C   0  0  0  0  0  0  0  0  0  0  0  0
   -8.8524   -1.9338  -23.0153 C   0  0  2  0  0  0  0  0  0  0  0  0
   -8.2296   -1.0622  -21.9188 C   0  0  0  0  0  0  0  0  0  0  0  0
   -8.5190    0.1132  -21.7739 O   0  0  0  0  0  0  0  0  0  0  0  0
   -7.1911   -1.6592  -21.2451 N   0  0  0  0  0  0  0  0  0  0  0  0
   -6.4831   -1.0309  -20.1793 C   0  0  0  0  0  0  0  0  0  0  0  0
   -6.8885   -1.2223  -18.8842 C   0  0  0  0  0  0  0  0  0  0  0  0
   -6.2340   -0.7576  -17.7928 N   0  0  0  0  0  0  0  0  0  0  0  0
   -5.1658   -0.0272  -17.9925 C   0  0  0  0  0  0  0  0  0  0  0  0
   -4.6692    0.3102  -19.2827 C   0  0  0  0  0  0  0  0  0  0  0  0
   -3.5604    1.1794  -19.4551 C   0  0  0  0  0  0  0  0  0  0  0  0
   -3.0840    1.4558  -20.7083 C   0  0  0  0  0  0  0  0  0  0  0  0
   -3.6911    0.8698  -21.8435 C   0  0  0  0  0  0  0  0  0  0  0  0
   -4.7847    0.0499  -21.7024 C   0  0  0  0  0  0  0  0  0  0  0  0
   -5.3205   -0.2297  -20.4157 C   0  0  0  0  0  0  0  0  0  0  0  0
   -8.0947   -1.5196  -24.2767 C   0  0  0  0  0  0  0  0  0  0  0  0
   -7.1981    2.8218  -24.6862 N   0  0  0  0  0  0  0  0  0  0  0  0
   -7.2919    4.2293  -24.6356 C   0  0  0  0  0  0  0  0  0  0  0  0
   -8.4736    4.8903  -24.9647 C   0  0  0  0  0  0  0  0  0  0  0  0
   -8.5484    6.2688  -24.8887 C   0  0  0  0  0  0  0  0  0  0  0  0
   -7.4337    7.0189  -24.5081 C   0  0  0  0  0  0  0  0  0  0  0  0
   -7.5163    8.4277  -24.4733 N   0  0  0  0  0  0  0  0  0  0  0  0
   -6.6147    9.1569  -23.5976 C   0  0  0  0  0  0  0  0  0  0  0  0
   -7.2195   10.5062  -23.2423 C   0  0  0  0  0  0  0  0  0  0  0  0
   -7.6087   11.2164  -24.3947 O   0  0  0  0  0  0  0  0  0  0  0  0
   -8.6128   10.5439  -25.1040 C   0  0  0  0  0  0  0  0  0  0  0  0
   -8.3068    9.0856  -25.3886 C   0  0  0  0  0  0  0  0  0  0  0  0
   -8.8175    8.5489  -26.3559 O   0  0  0  0  0  0  0  0  0  0  0  0
   -6.2659    6.3509  -24.1254 C   0  0  0  0  0  0  0  0  0  0  0  0
   -6.1971    4.9679  -24.1932 C   0  0  0  0  0  0  0  0  0  0  0  0
   -6.4396    0.3695  -25.2113 H   0  0  0  0  0  0  0  0  0  0  0  0
   -7.6398    0.0788  -26.4772 H   0  0  0  0  0  0  0  0  0  0  0  0
   -8.3113    0.4305  -23.5713 H   0  0  0  0  0  0  0  0  0  0  0  0
   -9.9348   -0.2677  -25.9343 H   0  0  0  0  0  0  0  0  0  0  0  0
  -10.0776    1.1607  -24.9359 H   0  0  0  0  0  0  0  0  0  0  0  0
  -12.4567    0.5202  -24.6521 H   0  0  0  0  0  0  0  0  0  0  0  0
  -14.1302   -0.8422  -23.4065 H   0  0  0  0  0  0  0  0  0  0  0  0
  -10.9685   -3.3748  -21.9924 H   0  0  0  0  0  0  0  0  0  0  0  0
   -8.6601   -2.9813  -22.7695 H   0  0  0  0  0  0  0  0  0  0  0  0
   -6.9295   -2.6053  -21.4861 H   0  0  0  0  0  0  0  0  0  0  0  0
   -7.7964   -1.7894  -18.6900 H   0  0  0  0  0  0  0  0  0  0  0  0
   -4.6461    0.3411  -17.1081 H   0  0  0  0  0  0  0  0  0  0  0  0
   -3.1296    1.6308  -18.5660 H   0  0  0  0  0  0  0  0  0  0  0  0
   -2.2481    2.1384  -20.8386 H   0  0  0  0  0  0  0  0  0  0  0  0
   -3.2916    1.0747  -22.8326 H   0  0  0  0  0  0  0  0  0  0  0  0
   -5.2572   -0.3998  -22.5707 H   0  0  0  0  0  0  0  0  0  0  0  0
   -8.4242   -2.0909  -25.1497 H   0  0  0  0  0  0  0  0  0  0  0  0
   -7.0155   -1.6711  -24.1648 H   0  0  0  0  0  0  0  0  0  0  0  0
   -6.5556    2.3904  -24.0363 H   0  0  0  0  0  0  0  0  0  0  0  0
   -9.3303    4.3227  -25.3095 H   0  0  0  0  0  0  0  0  0  0  0  0
   -9.4776    6.7535  -25.1605 H   0  0  0  0  0  0  0  0  0  0  0  0
   -6.4595    8.5615  -22.6951 H   0  0  0  0  0  0  0  0  0  0  0  0
   -5.6400    9.2818  -24.0801 H   0  0  0  0  0  0  0  0  0  0  0  0
   -8.0764   10.3549  -22.5726 H   0  0  0  0  0  0  0  0  0  0  0  0
   -6.4870   11.1255  -22.7221 H   0  0  0  0  0  0  0  0  0  0  0  0
   -8.7109   11.0355  -26.0670 H   0  0  0  0  0  0  0  0  0  0  0  0
   -9.6001   10.6018  -24.6115 H   0  0  0  0  0  0  0  0  0  0  0  0
   -5.3969    6.8971  -23.7690 H   0  0  0  0  0  0  0  0  0  0  0  0
   -5.2809    4.4582  -23.9015 H   0  0  0  0  0  0  0  0  0  0  0  0
  1  2  2  0
  2  3  1  0
  3  4  1  0
  4  5  1  0
  5  6  1  0
  6  7  2  0
  7  8  1  0
  8  9  2  0
  9 10  1  0
  9 11  1  0
 11 12  2  0
 12 13  1  0
 13 14  1  0
 14 15  2  0
 14 16  1  0
 16 17  1  0
 17 18  2  0
 18 19  1  0
 19 20  2  0
 20 21  1  0
 21 22  2  0
 22 23  1  0
 23 24  2  0
 24 25  1  0
 25 26  2  0
 13 27  1  0
  2 28  1  0
 28 29  1  0
 29 30  2  0
 30 31  1  0
 31 32  2  0
 32 33  1  0
 33 34  1  0
 34 35  1  0
 35 36  1  0
 36 37  1  0
 37 38  1  0
 38 39  2  0
 32 40  1  0
 40 41  2  0
 27  4  1  0
 41 29  1  0
 12  6  1  0
 26 17  1  0
 38 33  1  0
 26 21  1  0
  3 42  1  0
  3 43  1  0
  4 44  1  1
  5 45  1  0
  5 46  1  0
  7 47  1  0
  8 48  1  0
 11 49  1  0
 13 50  1  1
 16 51  1  0
 18 52  1  0
 20 53  1  0
 22 54  1  0
 23 55  1  0
 24 56  1  0
 25 57  1  0
 27 58  1  0
 27 59  1  0
 28 60  1  0
 30 61  1  0
 31 62  1  0
 34 63  1  0
 34 64  1  0
 35 65  1  0
 35 66  1  0
 37 67  1  0
 37 68  1  0
 40 69  1  0
 41 70  1  0
M  CHG  1   4   1
M  END
$$$$

     RDKit          3D

 58 63  0  0  0  0  0  0  0  0999 V2000
   -8.4232   -3.8376  -23.6949 C   0  0  0  0  0  0  0  0  0  0  0  0
   -8.5231   -2.8320  -22.5564 C   0  0  1  0  0  0  0  0  0  0  0  0
   -7.2058   -2.5776  -21.8112 C   0  0  0  0  0  0  0  0  0  0  0  0
   -7.4900   -1.3314  -21.1303 N   0  0  0  0  0  0  0  0  0  0  0  0
   -6.6399   -0.8147  -20.1144 C   0  0  0  0  0  0  0  0  0  0  0  0
   -6.8600   -1.1801  -18.8079 C   0  0  0  0  0  0  0  0  0  0  0  0
   -6.0770   -0.8122  -17.7653 N   0  0  0  0  0  0  0  0  0  0  0  0
   -5.0550   -0.0345  -18.0205 C   0  0  0  0  0  0  0  0  0  0  0  0
   -4.7307    0.4498  -19.3194 C   0  0  0  0  0  0  0  0  0  0  0  0
   -3.6563    1.3548  -19.5282 C   0  0  0  0  0  0  0  0  0  0  0  0
   -3.3288    1.7597  -20.7890 C   0  0  0  0  0  0  0  0  0  0  0  0
   -4.0531    1.2793  -21.9022 C   0  0  0  0  0  0  0  0  0  0  0  0
   -5.1366    0.4499  -21.7203 C   0  0  0  0  0  0  0  0  0  0  0  0
   -5.5172    0.0243  -20.4171 C   0  0  0  0  0  0  0  0  0  0  0  0
   -8.4716   -0.5818  -21.7571 C   0  0  0  0  0  0  0  0  0  0  0  0
   -8.7841    0.5417  -21.4441 O   0  0  0  0  0  0  0  0  0  0  0  0
   -9.0573   -1.4227  -22.9292 C   0  0  1  0  0  0  0  0  0  0  0  0
   -8.4870   -0.8813  -24.2713 C   0  0  0  0  0  0  0  0  0  0  0  0
   -8.9657    0.4590  -24.5660 N   0  0  0  0  0  0  0  0  0  0  0  0
   -8.1424    1.3726  -25.3325 C   0  0  0  0  0  0  0  0  0  0  0  0
   -7.7227    2.6006  -24.5544 C   0  0  0  0  0  0  0  0  0  0  0  0
   -7.8006    3.8452  -25.0979 C   0  0  0  0  0  0  0  0  0  0  0  0
   -7.3747    5.0048  -24.3422 C   0  0  0  0  0  0  0  0  0  0  0  0
   -7.3603    6.1679  -24.6878 O   0  0  0  0  0  0  0  0  0  0  0  0
   -6.9331    4.6343  -23.0514 N   0  0  0  0  0  0  0  0  0  0  0  0
   -6.8431    3.3558  -22.6042 C   0  0  0  0  0  0  0  0  0  0  0  0
   -7.1970    2.3343  -23.3210 N   0  0  0  0  0  0  0  0  0  0  0  0
  -10.2174    0.8877  -24.2306 C   0  0  0  0  0  0  0  0  0  0  0  0
  -10.5971    2.0352  -24.4228 O   0  0  0  0  0  0  0  0  0  0  0  0
  -11.1043   -0.1440  -23.6115 C   0  0  0  0  0  0  0  0  0  0  0  0
  -12.4713    0.1228  -23.5974 C   0  0  0  0  0  0  0  0  0  0  0  0
  -13.3539   -0.8000  -23.0789 C   0  0  0  0  0  0  0  0  0  0  0  0
  -12.8262   -1.9944  -22.6018 C   0  0  0  0  0  0  0  0  0  0  0  0
  -13.6811   -2.8984  -22.0921 F   0  0  0  0  0  0  0  0  0  0  0  0
  -11.4752   -2.2870  -22.6046 C   0  0  0  0  0  0  0  0  0  0  0  0
  -10.5694   -1.3145  -23.0520 C   0  0  0  0  0  0  0  0  0  0  0  0
   -7.6735   -3.5225  -24.4292 H   0  0  0  0  0  0  0  0  0  0  0  0
   -9.3834   -3.9256  -24.2132 H   0  0  0  0  0  0  0  0  0  0  0  0
   -8.1342   -4.8338  -23.3415 H   0  0  0  0  0  0  0  0  0  0  0  0
   -9.2055   -3.2179  -21.7882 H   0  0  0  0  0  0  0  0  0  0  0  0
   -6.3468   -2.4816  -22.5014 H   0  0  0  0  0  0  0  0  0  0  0  0
   -6.9613   -3.3537  -21.0782 H   0  0  0  0  0  0  0  0  0  0  0  0
   -7.7215   -1.8000  -18.5609 H   0  0  0  0  0  0  0  0  0  0  0  0
   -4.4179    0.2567  -17.1842 H   0  0  0  0  0  0  0  0  0  0  0  0
   -3.1063    1.7088  -18.6598 H   0  0  0  0  0  0  0  0  0  0  0  0
   -2.5092    2.4543  -20.9433 H   0  0  0  0  0  0  0  0  0  0  0  0
   -3.7516    1.5722  -22.9037 H   0  0  0  0  0  0  0  0  0  0  0  0
   -5.7088    0.1288  -22.5856 H   0  0  0  0  0  0  0  0  0  0  0  0
   -8.7808   -1.5686  -25.0756 H   0  0  0  0  0  0  0  0  0  0  0  0
   -7.3918   -0.8556  -24.2189 H   0  0  0  0  0  0  0  0  0  0  0  0
   -8.6575    1.6627  -26.2540 H   0  0  0  0  0  0  0  0  0  0  0  0
   -7.2308    0.8385  -25.6100 H   0  0  0  0  0  0  0  0  0  0  0  0
   -8.1472    3.9905  -26.1103 H   0  0  0  0  0  0  0  0  0  0  0  0
   -6.6047    5.4011  -22.4824 H   0  0  0  0  0  0  0  0  0  0  0  0
   -6.4483    3.2063  -21.5983 H   0  0  0  0  0  0  0  0  0  0  0  0
  -12.8087    1.0796  -23.9803 H   0  0  0  0  0  0  0  0  0  0  0  0
  -14.4241   -0.6293  -23.0324 H   0  0  0  0  0  0  0  0  0  0  0  0
  -11.1719   -3.2682  -22.2506 H   0  0  0  0  0  0  0  0  0  0  0  0
  1  2  1  0
  2  3  1  0
  3  4  1  0
  4  5  1  0
  5  6  2  0
  6  7  1  0
  7  8  2  0
  8  9  1  0
  9 10  2  0
 10 11  1  0
 11 12  2  0
 12 13  1  0
 13 14  2  0
  4 15  1  0
 15 16  2  0
 15 17  1  0
 17 18  1  6
 18 19  1  0
 19 20  1  0
 20 21  1  0
 21 22  2  0
 22 23  1  0
 23 24  2  0
 23 25  1  0
 25 26  1  0
 26 27  2  0
 19 28  1  0
 28 29  2  0
 28 30  1  0
 30 31  2  0
 31 32  1  0
 32 33  2  0
 33 34  1  0
 33 35  1  0
 35 36  2  0
 17  2  1  0
 27 21  1  0
 36 30  1  0
 14  5  1  0
 36 17  1  0
 14  9  1  0
  1 37  1  0
  1 38  1  0
  1 39  1  0
  2 40  1  1
  3 41  1  0
  3 42  1  0
  6 43  1  0
  8 44  1  0
 10 45  1  0
 11 46  1  0
 12 47  1  0
 13 48  1  0
 18 49  1  0
 18 50  1  0
 20 51  1  0
 20 52  1  0
 22 53  1  0
 25 54  1  0
 26 55  1  0
 31 56  1  0
 32 57  1  0
 35 58  1  0
M  END
$$$$

     RDKit          3D

 61 66  0  0  0  0  0  0  0  0999 V2000
   -7.3839   -4.4713  -25.6355 C   0  0  0  0  0  0  0  0  0  0  0  0
   -7.4013   -3.6314  -24.5079 O   0  0  0  0  0  0  0  0  0  0  0  0
   -8.4850   -3.8947  -23.6374 C   0  0  0  0  0  0  0  0  0  0  0  0
   -8.5386   -2.8269  -22.5549 C   0  0  1  0  0  0  0  0  0  0  0  0
   -7.2186   -2.5765  -21.8214 C   0  0  0  0  0  0  0  0  0  0  0  0
   -7.4950   -1.3104  -21.1593 N   0  0  0  0  0  0  0  0  0  0  0  0
   -6.6505   -0.7993  -20.1314 C   0  0  0  0  0  0  0  0  0  0  0  0
   -6.8710   -1.1714  -18.8266 C   0  0  0  0  0  0  0  0  0  0  0  0
   -6.0915   -0.8073  -17.7772 N   0  0  0  0  0  0  0  0  0  0  0  0
   -5.0664   -0.0324  -18.0310 C   0  0  0  0  0  0  0  0  0  0  0  0
   -4.7329    0.4474  -19.3274 C   0  0  0  0  0  0  0  0  0  0  0  0
   -3.6559    1.3500  -19.5251 C   0  0  0  0  0  0  0  0  0  0  0  0
   -3.3078    1.7380  -20.7853 C   0  0  0  0  0  0  0  0  0  0  0  0
   -4.0133    1.2407  -21.9055 C   0  0  0  0  0  0  0  0  0  0  0  0
   -5.1181    0.4435  -21.7356 C   0  0  0  0  0  0  0  0  0  0  0  0
   -5.5178    0.0316  -20.4308 C   0  0  0  0  0  0  0  0  0  0  0  0
   -8.4466   -0.5533  -21.8189 C   0  0  0  0  0  0  0  0  0  0  0  0
   -8.7070    0.6026  -21.5633 O   0  0  0  0  0  0  0  0  0  0  0  0
   -9.0621   -1.4218  -22.9606 C   0  0  1  0  0  0  0  0  0  0  0  0
   -8.5012   -0.8931  -24.3085 C   0  0  0  0  0  0  0  0  0  0  0  0
   -8.9934    0.4486  -24.5835 N   0  0  0  0  0  0  0  0  0  0  0  0
   -8.1468    1.3506  -25.3373 C   0  0  0  0  0  0  0  0  0  0  0  0
   -7.2912    2.2432  -24.4768 C   0  0  0  0  0  0  0  0  0  0  0  0
   -6.0221    2.6861  -24.6822 C   0  0  0  0  0  0  0  0  0  0  0  0
   -5.7507    3.5999  -23.6828 N   0  0  0  0  0  0  0  0  0  0  0  0
   -6.8123    3.6927  -22.8698 C   0  0  0  0  0  0  0  0  0  0  0  0
   -7.7665    2.8733  -23.3352 N   0  0  0  0  0  0  0  0  0  0  0  0
  -10.2201    0.8930  -24.1916 C   0  0  0  0  0  0  0  0  0  0  0  0
  -10.5569    2.0695  -24.3077 O   0  0  0  0  0  0  0  0  0  0  0  0
  -11.1231   -0.1405  -23.6018 C   0  0  0  0  0  0  0  0  0  0  0  0
  -12.4936    0.1101  -23.5825 C   0  0  0  0  0  0  0  0  0  0  0  0
  -13.3598   -0.8252  -23.0566 C   0  0  0  0  0  0  0  0  0  0  0  0
  -12.8253   -2.0189  -22.5734 C   0  0  0  0  0  0  0  0  0  0  0  0
  -13.8851   -3.1883  -21.8409 Cl  0  0  0  0  0  0  0  0  0  0  0  0
  -11.4686   -2.2911  -22.6035 C   0  0  0  0  0  0  0  0  0  0  0  0
  -10.5760   -1.3123  -23.0596 C   0  0  0  0  0  0  0  0  0  0  0  0
   -6.5172   -4.1900  -26.2355 H   0  0  0  0  0  0  0  0  0  0  0  0
   -8.2873   -4.3489  -26.2546 H   0  0  0  0  0  0  0  0  0  0  0  0
   -7.2861   -5.5367  -25.3686 H   0  0  0  0  0  0  0  0  0  0  0  0
   -8.3805   -4.8966  -23.1818 H   0  0  0  0  0  0  0  0  0  0  0  0
   -9.4412   -3.8875  -24.1911 H   0  0  0  0  0  0  0  0  0  0  0  0
   -9.2220   -3.1748  -21.7717 H   0  0  0  0  0  0  0  0  0  0  0  0
   -6.9919   -3.3372  -21.0668 H   0  0  0  0  0  0  0  0  0  0  0  0
   -6.3662   -2.5002  -22.5162 H   0  0  0  0  0  0  0  0  0  0  0  0
   -7.7266   -1.8013  -18.5831 H   0  0  0  0  0  0  0  0  0  0  0  0
   -4.4310    0.2600  -17.1961 H   0  0  0  0  0  0  0  0  0  0  0  0
   -3.1153    1.7065  -18.6511 H   0  0  0  0  0  0  0  0  0  0  0  0
   -2.4831    2.4271  -20.9305 H   0  0  0  0  0  0  0  0  0  0  0  0
   -3.6682    1.4889  -22.9043 H   0  0  0  0  0  0  0  0  0  0  0  0
   -5.6967    0.1310  -22.6017 H   0  0  0  0  0  0  0  0  0  0  0  0
   -7.4087   -0.8597  -24.2779 H   0  0  0  0  0  0  0  0  0  0  0  0
   -8.7897   -1.5711  -25.1190 H   0  0  0  0  0  0  0  0  0  0  0  0
   -7.5103    0.7505  -26.0002 H   0  0  0  0  0  0  0  0  0  0  0  0
   -8.8064    1.9584  -25.9724 H   0  0  0  0  0  0  0  0  0  0  0  0
   -5.2597    2.4166  -25.4070 H   0  0  0  0  0  0  0  0  0  0  0  0
   -4.8672    4.0807  -23.5669 H   0  0  0  0  0  0  0  0  0  0  0  0
   -6.8680    4.3080  -21.9832 H   0  0  0  0  0  0  0  0  0  0  0  0
   -8.6091    2.6008  -22.8249 H   0  0  0  0  0  0  0  0  0  0  0  0
  -12.8605    1.0569  -23.9622 H   0  0  0  0  0  0  0  0  0  0  0  0
  -14.4300   -0.6526  -23.0118 H   0  0  0  0  0  0  0  0  0  0  0  0
  -11.1490   -3.2691  -22.2575 H   0  0  0  0  0  0  0  0  0  0  0  0
  1  2  1  0
  2  3  1  0
  3  4  1  0
  4  5  1  0
  5  6  1  0
  6  7  1  0
  7  8  2  0
  8  9  1  0
  9 10  2  0
 10 11  1  0
 11 12  2  0
 12 13  1  0
 13 14  2  0
 14 15  1  0
 15 16  2  0
  6 17  1  0
 17 18  2  0
 17 19  1  0
 19 20  1  6
 20 21  1  0
 21 22  1  0
 22 23  1  0
 23 24  2  0
 24 25  1  0
 25 26  2  0
 26 27  1  0
 21 28  1  0
 28 29  2  0
 28 30  1  0
 30 31  2  0
 31 32  1  0
 32 33  2  0
 33 34  1  0
 33 35  1  0
 35 36  2  0
 19  4  1  0
 27 23  1  0
 36 30  1  0
 16  7  1  0
 36 19  1  0
 16 11  1  0
  1 37  1  0
  1 38  1  0
  1 39  1  0
  3 40  1  0
  3 41  1  0
  4 42  1  1
  5 43  1  0
  5 44  1  0
  8 45  1  0
 10 46  1  0
 12 47  1  0
 13 48  1  0
 14 49  1  0
 15 50  1  0
 20 51  1  0
 20 52  1  0
 22 53  1  0
 22 54  1  0
 24 55  1  0
 25 56  1  0
 26 57  1  0
 27 58  1  0
 31 59  1  0
 32 60  1  0
 35 61  1  0
M  CHG  1  25   1
M  END
$$$$

     RDKit          3D

 65 70  0  0  0  0  0  0  0  0999 V2000
   -6.0774    2.0029  -25.0487 O   0  0  0  0  0  0  0  0  0  0  0  0
   -7.2500    2.0013  -24.7033 C   0  0  0  0  0  0  0  0  0  0  0  0
   -8.3106    1.1255  -25.3998 C   0  0  0  0  0  0  0  0  0  0  0  0
   -9.0914    0.2916  -24.4407 N   0  0  1  0  0  0  0  0  0  0  0  0
  -10.5457    0.2528  -24.7427 C   0  0  0  0  0  0  0  0  0  0  0  0
  -11.3216   -0.6326  -23.8081 C   0  0  0  0  0  0  0  0  0  0  0  0
  -12.7004   -0.4496  -23.7545 C   0  0  0  0  0  0  0  0  0  0  0  0
  -13.5157   -1.3945  -23.1526 C   0  0  0  0  0  0  0  0  0  0  0  0
  -12.9142   -2.5052  -22.5689 C   0  0  0  0  0  0  0  0  0  0  0  0
  -13.9074   -3.7025  -21.7824 Cl  0  0  0  0  0  0  0  0  0  0  0  0
  -11.5378   -2.6615  -22.5483 C   0  0  0  0  0  0  0  0  0  0  0  0
  -10.7096   -1.6885  -23.1160 C   0  0  0  0  0  0  0  0  0  0  0  0
   -9.1852   -1.7225  -23.0251 C   0  0  2  0  0  0  0  0  0  0  0  0
   -8.5320   -3.0773  -22.6800 C   0  0  0  0  0  0  0  0  0  0  0  0
   -7.2468   -2.7196  -21.9167 C   0  0  0  0  0  0  0  0  0  0  0  0
   -7.6008   -1.4638  -21.2769 N   0  0  0  0  0  0  0  0  0  0  0  0
   -6.7848   -0.9009  -20.2554 C   0  0  0  0  0  0  0  0  0  0  0  0
   -7.0277   -1.2711  -18.9576 C   0  0  0  0  0  0  0  0  0  0  0  0
   -6.2523   -0.9389  -17.8995 N   0  0  0  0  0  0  0  0  0  0  0  0
   -5.1972   -0.2029  -18.1346 C   0  0  0  0  0  0  0  0  0  0  0  0
   -4.8422    0.2916  -19.4219 C   0  0  0  0  0  0  0  0  0  0  0  0
   -3.7137    1.1339  -19.6075 C   0  0  0  0  0  0  0  0  0  0  0  0
   -3.3550    1.5540  -20.8584 C   0  0  0  0  0  0  0  0  0  0  0  0
   -4.1074    1.1415  -21.9846 C   0  0  0  0  0  0  0  0  0  0  0  0
   -5.2202    0.3517  -21.8276 C   0  0  0  0  0  0  0  0  0  0  0  0
   -5.6366   -0.0885  -20.5364 C   0  0  0  0  0  0  0  0  0  0  0  0
   -8.6123   -0.8017  -21.9174 C   0  0  0  0  0  0  0  0  0  0  0  0
   -8.9042    0.3704  -21.7495 O   0  0  0  0  0  0  0  0  0  0  0  0
   -8.6047   -1.1342  -24.3304 C   0  0  0  0  0  0  0  0  0  0  0  0
   -7.7507    2.7769  -23.6977 N   0  0  0  0  0  0  0  0  0  0  0  0
   -6.9225    3.5421  -22.7800 C   0  0  0  0  0  0  0  0  0  0  0  0
   -6.8288    5.0248  -23.1344 C   0  0  1  0  0  0  0  0  0  0  0  0
   -5.9598    5.8578  -22.1593 C   0  0  0  0  0  0  0  0  0  0  0  0
   -5.0830    6.2992  -23.3446 C   0  0  1  0  0  0  0  0  0  0  0  0
   -3.7399    6.0019  -23.1883 F   0  0  0  0  0  0  0  0  0  0  0  0
   -5.8304    5.3355  -24.2853 C   0  0  0  0  0  0  0  0  0  0  0  0
   -7.8027    0.4986  -26.1386 H   0  0  0  0  0  0  0  0  0  0  0  0
   -9.0131    1.7758  -25.9414 H   0  0  0  0  0  0  0  0  0  0  0  0
   -8.9960    0.6923  -23.4814 H   0  0  0  0  0  0  0  0  0  0  0  0
  -10.9805    1.2615  -24.7302 H   0  0  0  0  0  0  0  0  0  0  0  0
  -10.6887   -0.1358  -25.7634 H   0  0  0  0  0  0  0  0  0  0  0  0
  -13.1507    0.4281  -24.2188 H   0  0  0  0  0  0  0  0  0  0  0  0
  -14.5953   -1.2995  -23.1578 H   0  0  0  0  0  0  0  0  0  0  0  0
  -11.1190   -3.5505  -22.0892 H   0  0  0  0  0  0  0  0  0  0  0  0
   -8.3296   -3.6792  -23.5702 H   0  0  0  0  0  0  0  0  0  0  0  0
   -9.1725   -3.6653  -22.0188 H   0  0  0  0  0  0  0  0  0  0  0  0
   -6.3860   -2.5967  -22.5960 H   0  0  0  0  0  0  0  0  0  0  0  0
   -6.9690   -3.4459  -21.1474 H   0  0  0  0  0  0  0  0  0  0  0  0
   -7.9024   -1.8790  -18.7420 H   0  0  0  0  0  0  0  0  0  0  0  0
   -4.5661    0.0413  -17.2783 H   0  0  0  0  0  0  0  0  0  0  0  0
   -3.1564    1.4423  -18.7250 H   0  0  0  0  0  0  0  0  0  0  0  0
   -2.5013    2.2113  -20.9960 H   0  0  0  0  0  0  0  0  0  0  0  0
   -3.8247    1.4795  -22.9813 H   0  0  0  0  0  0  0  0  0  0  0  0
   -5.7801    0.0519  -22.7099 H   0  0  0  0  0  0  0  0  0  0  0  0
   -8.9313   -1.7155  -25.2017 H   0  0  0  0  0  0  0  0  0  0  0  0
   -7.5115   -1.1454  -24.3063 H   0  0  0  0  0  0  0  0  0  0  0  0
   -8.7302    2.6867  -23.4686 H   0  0  0  0  0  0  0  0  0  0  0  0
   -7.3277    3.4117  -21.7669 H   0  0  0  0  0  0  0  0  0  0  0  0
   -5.9158    3.1043  -22.7920 H   0  0  0  0  0  0  0  0  0  0  0  0
   -7.8255    5.4602  -23.2886 H   0  0  0  0  0  0  0  0  0  0  0  0
   -6.4682    6.6423  -21.5901 H   0  0  0  0  0  0  0  0  0  0  0  0
   -5.3984    5.2361  -21.4495 H   0  0  0  0  0  0  0  0  0  0  0  0
   -5.1453    7.3633  -23.6042 H   0  0  0  0  0  0  0  0  0  0  0  0
   -5.2270    4.4606  -24.5572 H   0  0  0  0  0  0  0  0  0  0  0  0
   -6.2477    5.7603  -25.2050 H   0  0  0  0  0  0  0  0  0  0  0  0
  1  2  2  0
  2  3  1  0
  3  4  1  0
  4  5  1  0
  5  6  1  0
  6  7  2  0
  7  8  1  0
  8  9  2  0
  9 10  1  0
  9 11  1  0
 11 12  2  0
 12 13  1  0
 13 14  1  1
 14 15  1  0
 15 16  1  0
 16 17  1  0
 17 18  2  0
 18 19  1  0
 19 20  2  0
 20 21  1  0
 21 22  2  0
 22 23  1  0
 23 24  2  0
 24 25  1  0
 25 26  2  0
 16 27  1  0
 27 28  2  0
 13 29  1  0
  2 30  1  0
 30 31  1  0
 31 32  1  0
 32 33  1  0
 33 34  1  0
 34 35  1  0
 34 36  1  0
 29  4  1  0
 36 32  1  0
 12  6  1  0
 27 13  1  0
 26 17  1  0
 26 21  1  0
  3 37  1  0
  3 38  1  0
  4 39  1  1
  5 40  1  0
  5 41  1  0
  7 42  1  0
  8 43  1  0
 11 44  1  0
 14 45  1  0
 14 46  1  0
 15 47  1  0
 15 48  1  0
 18 49  1  0
 20 50  1  0
 22 51  1  0
 23 52  1  0
 24 53  1  0
 25 54  1  0
 29 55  1  0
 29 56  1  0
 30 57  1  0
 31 58  1  0
 31 59  1  0
 32 60  1  6
 33 61  1  0
 33 62  1  0
 34 63  1  6
 36 64  1  0
 36 65  1  0
M  CHG  1   4   1
M  END
$$$$

     RDKit          3D

 46 50  0  0  0  0  0  0  0  0999 V2000
  -14.3592   -4.2089  -22.3097 N   0  0  0  0  0  0  0  0  0  0  0  0
  -13.5963   -3.1655  -21.2545 S   0  0  0  0  0  0  0  0  0  0  0  0
  -12.7139   -3.9605  -20.4187 O   0  0  0  0  0  0  0  0  0  0  0  0
  -14.6322   -2.3458  -20.6497 O   0  0  0  0  0  0  0  0  0  0  0  0
  -12.6288   -2.2027  -22.3720 C   0  0  0  0  0  0  0  0  0  0  0  0
  -13.2404   -1.4526  -23.3753 C   0  0  0  0  0  0  0  0  0  0  0  0
  -12.4557   -0.7327  -24.2599 C   0  0  0  0  0  0  0  0  0  0  0  0
  -11.0651   -0.7306  -24.1230 C   0  0  0  0  0  0  0  0  0  0  0  0
  -10.4590   -1.5008  -23.1264 C   0  0  0  0  0  0  0  0  0  0  0  0
  -11.2521   -2.2140  -22.2362 C   0  0  0  0  0  0  0  0  0  0  0  0
   -8.9624   -1.5304  -22.9601 C   0  0  2  0  0  0  0  0  0  0  0  0
   -8.2852   -0.9453  -24.2135 C   0  0  0  0  0  0  0  0  0  0  0  0
   -9.0080    0.3299  -24.6098 C   0  0  0  0  0  0  0  0  0  0  0  0
  -10.3545    0.0394  -24.9900 O   0  0  0  0  0  0  0  0  0  0  0  0
   -8.4452   -2.8533  -22.6322 N   0  0  0  0  0  0  0  0  0  0  0  0
   -7.5079   -2.8274  -21.6270 C   0  0  0  0  0  0  0  0  0  0  0  0
   -6.7689   -3.7081  -21.2565 O   0  0  0  0  0  0  0  0  0  0  0  0
   -7.5732   -1.5379  -21.0716 N   0  0  0  0  0  0  0  0  0  0  0  0
   -6.6607   -1.0650  -20.0917 C   0  0  0  0  0  0  0  0  0  0  0  0
   -6.8354   -1.4360  -18.7908 C   0  0  0  0  0  0  0  0  0  0  0  0
   -6.0550   -1.0135  -17.7651 N   0  0  0  0  0  0  0  0  0  0  0  0
   -5.0756   -0.1865  -18.0450 C   0  0  0  0  0  0  0  0  0  0  0  0
   -4.7743    0.2750  -19.3591 C   0  0  0  0  0  0  0  0  0  0  0  0
   -3.7426    1.2216  -19.6097 C   0  0  0  0  0  0  0  0  0  0  0  0
   -3.4590    1.5992  -20.8928 C   0  0  0  0  0  0  0  0  0  0  0  0
   -4.1667    1.0230  -21.9766 C   0  0  0  0  0  0  0  0  0  0  0  0
   -5.1861    0.1300  -21.7597 C   0  0  0  0  0  0  0  0  0  0  0  0
   -5.5484   -0.2272  -20.4323 C   0  0  0  0  0  0  0  0  0  0  0  0
   -8.5348   -0.7516  -21.7044 C   0  0  0  0  0  0  0  0  0  0  0  0
   -8.9168    0.3194  -21.3149 O   0  0  0  0  0  0  0  0  0  0  0  0
  -15.1844   -4.5552  -21.8218 H   0  0  0  0  0  0  0  0  0  0  0  0
  -13.7558   -4.9997  -22.5114 H   0  0  0  0  0  0  0  0  0  0  0  0
  -14.3230   -1.4096  -23.4489 H   0  0  0  0  0  0  0  0  0  0  0  0
  -12.9089   -0.1616  -25.0581 H   0  0  0  0  0  0  0  0  0  0  0  0
  -10.7944   -2.7758  -21.4317 H   0  0  0  0  0  0  0  0  0  0  0  0
   -8.3545   -1.6843  -25.0209 H   0  0  0  0  0  0  0  0  0  0  0  0
   -7.2223   -0.7655  -24.0125 H   0  0  0  0  0  0  0  0  0  0  0  0
   -8.9980    1.0398  -23.7713 H   0  0  0  0  0  0  0  0  0  0  0  0
   -8.5474    0.7979  -25.4814 H   0  0  0  0  0  0  0  0  0  0  0  0
   -8.3222   -3.5432  -23.3594 H   0  0  0  0  0  0  0  0  0  0  0  0
   -7.6629   -2.0992  -18.5466 H   0  0  0  0  0  0  0  0  0  0  0  0
   -4.4721    0.1583  -17.2024 H   0  0  0  0  0  0  0  0  0  0  0  0
   -3.1899    1.6428  -18.7702 H   0  0  0  0  0  0  0  0  0  0  0  0
   -2.6712    2.3229  -21.0941 H   0  0  0  0  0  0  0  0  0  0  0  0
   -3.9231    1.3043  -22.9959 H   0  0  0  0  0  0  0  0  0  0  0  0
   -5.7047   -0.3295  -22.5983 H   0  0  0  0  0  0  0  0  0  0  0  0
  1  2  1  0
  2  3  2  0
  2  4  2  0
  2  5  1  0
  5  6  2  0
  6  7  1  0
  7  8  2  0
  8  9  1  0
  9 10  2  0
  9 11  1  0
 11 12  1  0
 12 13  1  0
 13 14  1  0
 11 15  1  1
 15 16  1  0
 16 17  2  0
 16 18  1  0
 18 19  1  0
 19 20  2  0
 20 21  1  0
 21 22  2  0
 22 23  1  0
 23 24  2  0
 24 25  1  0
 25 26  2  0
 26 27  1  0
 27 28  2  0
 18 29  1  0
 29 30  2  0
 10  5  1  0
 29 11  1  0
 14  8  1  0
 28 19  1  0
 28 23  1  0
  1 31  1  0
  1 32  1  0
  6 33  1  0
  7 34  1  0
 10 35  1  0
 12 36  1  0
 12 37  1  0
 13 38  1  0
 13 39  1  0
 15 40  1  0
 20 41  1  0
 22 42  1  0
 24 43  1  0
 25 44  1  0
 26 45  1  0
 27 46  1  0
M  END
$$$$

     RDKit          3D

 44 47  0  0  0  0  0  0  0  0999 V2000
   13.2074   -2.3690   24.0639 C   0  0  0  0  0  0  0  0  0  0  0  0
   12.8064   -1.3340   23.0233 C   0  0  0  0  0  0  0  0  0  0  0  0
   11.3675   -0.4106   23.5544 S   0  0  0  0  0  0  0  0  0  0  0  0
   10.9501    0.5023   22.5143 O   0  0  0  0  0  0  0  0  0  0  0  0
   11.7247    0.1634   24.8272 O   0  0  0  0  0  0  0  0  0  0  0  0
   10.1892   -1.5954   23.8281 N   0  0  0  0  0  0  0  0  0  0  0  0
    9.6609   -2.4215   22.7154 C   0  0  0  0  0  0  0  0  0  0  0  0
    8.2406   -1.8580   22.9698 C   0  0  0  0  0  0  0  0  0  0  0  0
    8.8276   -1.1088   24.1853 C   0  0  0  0  0  0  0  0  0  0  0  0
    7.7785   -0.9075   21.8815 C   0  0  0  0  0  0  0  0  0  0  0  0
    8.3466    0.0612   21.4599 O   0  0  0  0  0  0  0  0  0  0  0  0
    6.5366   -1.3787   21.4520 N   0  0  0  0  0  0  0  0  0  0  0  0
    5.8185   -0.8295   20.3529 C   0  0  0  0  0  0  0  0  0  0  0  0
    6.2656   -1.0760   19.0810 C   0  0  0  0  0  0  0  0  0  0  0  0
    5.6755   -0.6180   17.9482 N   0  0  0  0  0  0  0  0  0  0  0  0
    4.6163    0.1404   18.1020 C   0  0  0  0  0  0  0  0  0  0  0  0
    4.0473    0.4784   19.3631 C   0  0  0  0  0  0  0  0  0  0  0  0
    2.9020    1.3108   19.4473 C   0  0  0  0  0  0  0  0  0  0  0  0
    2.3678    1.6329   20.6628 C   0  0  0  0  0  0  0  0  0  0  0  0
    2.9622    1.1440   21.8496 C   0  0  0  0  0  0  0  0  0  0  0  0
    4.0813    0.3450   21.7975 C   0  0  0  0  0  0  0  0  0  0  0  0
    4.6532   -0.0156   20.5407 C   0  0  0  0  0  0  0  0  0  0  0  0
    6.1377   -2.5238   22.1623 C   0  0  0  0  0  0  0  0  0  0  0  0
    5.1373   -3.1702   21.9642 O   0  0  0  0  0  0  0  0  0  0  0  0
    7.1154   -2.7436   23.0990 N   0  0  0  0  0  0  0  0  0  0  0  0
    7.0373   -3.8297   24.0471 C   0  0  0  0  0  0  0  0  0  0  0  0
   12.4620   -3.1691   24.0731 H   0  0  0  0  0  0  0  0  0  0  0  0
   14.1794   -2.8131   23.8245 H   0  0  0  0  0  0  0  0  0  0  0  0
   13.2428   -1.9309   25.0671 H   0  0  0  0  0  0  0  0  0  0  0  0
   13.5513   -0.5425   22.8949 H   0  0  0  0  0  0  0  0  0  0  0  0
   12.6353   -1.7686   22.0357 H   0  0  0  0  0  0  0  0  0  0  0  0
   10.0496   -2.1769   21.7281 H   0  0  0  0  0  0  0  0  0  0  0  0
    9.7739   -3.4937   22.9079 H   0  0  0  0  0  0  0  0  0  0  0  0
    8.7136   -0.0278   24.1050 H   0  0  0  0  0  0  0  0  0  0  0  0
    8.5055   -1.4517   25.1712 H   0  0  0  0  0  0  0  0  0  0  0  0
    7.1577   -1.6817   18.9449 H   0  0  0  0  0  0  0  0  0  0  0  0
    4.1531    0.5456   17.2016 H   0  0  0  0  0  0  0  0  0  0  0  0
    2.4830    1.6840   18.5177 H   0  0  0  0  0  0  0  0  0  0  0  0
    1.4926    2.2757   20.7298 H   0  0  0  0  0  0  0  0  0  0  0  0
    2.5280    1.4179   22.8088 H   0  0  0  0  0  0  0  0  0  0  0  0
    4.5377    0.0017   22.7217 H   0  0  0  0  0  0  0  0  0  0  0  0
    6.9508   -4.7869   23.5235 H   0  0  0  0  0  0  0  0  0  0  0  0
    7.9408   -3.8344   24.6620 H   0  0  0  0  0  0  0  0  0  0  0  0
    6.1644   -3.7118   24.6981 H   0  0  0  0  0  0  0  0  0  0  0  0
  1  2  1  0
  2  3  1  0
  3  4  2  0
  3  5  2  0
  3  6  1  0
  6  7  1  0
  7  8  1  0
  8  9  1  0
  8 10  1  0
 10 11  2  0
 10 12  1  0
 12 13  1  0
 13 14  2  0
 14 15  1  0
 15 16  2  0
 16 17  1  0
 17 18  2  0
 18 19  1  0
 19 20  2  0
 20 21  1  0
 21 22  2  0
 12 23  1  0
 23 24  2  0
 23 25  1  0
 25 26  1  0
  9  6  1  0
 22 13  1  0
 25  8  1  0
 22 17  1  0
  1 27  1  0
  1 28  1  0
  1 29  1  0
  2 30  1  0
  2 31  1  0
  7 32  1  0
  7 33  1  0
  9 34  1  0
  9 35  1  0
 14 36  1  0
 16 37  1  0
 18 38  1  0
 19 39  1  0
 20 40  1  0
 21 41  1  0
 26 42  1  0
 26 43  1  0
 26 44  1  0
M  END
$$$$

     RDKit          3D

 43 45  0  0  0  0  0  0  0  0999 V2000
  -13.8181   -2.8504  -22.2636 C   0  0  0  0  0  0  0  0  0  0  0  0
  -12.4837   -2.5842  -22.9672 C   0  0  0  0  0  0  0  0  0  0  0  0
  -12.6069   -3.0050  -24.4370 C   0  0  0  0  0  0  0  0  0  0  0  0
  -12.2055   -1.0667  -22.8954 C   0  0  0  0  0  0  0  0  0  0  0  0
  -10.7843   -0.7000  -23.3101 C   0  0  0  0  0  0  0  0  0  0  0  0
   -9.8104   -1.5061  -22.5840 N   0  0  0  0  0  0  0  0  0  0  0  0
   -8.8709   -0.8548  -21.8214 C   0  0  0  0  0  0  0  0  0  0  0  0
   -8.9753    0.3278  -21.5512 O   0  0  0  0  0  0  0  0  0  0  0  0
   -7.6453   -1.6683  -21.3861 C   0  0  0  0  0  0  0  0  0  0  0  0
   -6.8310   -1.0517  -20.2817 C   0  0  0  0  0  0  0  0  0  0  0  0
   -7.1735   -1.3147  -18.9816 C   0  0  0  0  0  0  0  0  0  0  0  0
   -6.4770   -0.9070  -17.8886 N   0  0  0  0  0  0  0  0  0  0  0  0
   -5.3978   -0.1938  -18.0964 C   0  0  0  0  0  0  0  0  0  0  0  0
   -4.9674    0.2304  -19.3833 C   0  0  0  0  0  0  0  0  0  0  0  0
   -3.8577    1.0976  -19.5568 C   0  0  0  0  0  0  0  0  0  0  0  0
   -3.4091    1.4050  -20.8133 C   0  0  0  0  0  0  0  0  0  0  0  0
   -4.0899    0.9069  -21.9520 C   0  0  0  0  0  0  0  0  0  0  0  0
   -5.1982    0.1084  -21.8084 C   0  0  0  0  0  0  0  0  0  0  0  0
   -5.6785   -0.2414  -20.5171 C   0  0  0  0  0  0  0  0  0  0  0  0
   -9.9547   -2.9455  -22.7365 C   0  0  0  0  0  0  0  0  0  0  0  0
  -11.3538   -3.4302  -22.3386 C   0  0  0  0  0  0  0  0  0  0  0  0
  -14.6058   -2.2480  -22.7337 H   0  0  0  0  0  0  0  0  0  0  0  0
  -14.1125   -3.9046  -22.3240 H   0  0  0  0  0  0  0  0  0  0  0  0
  -13.7782   -2.5810  -21.2021 H   0  0  0  0  0  0  0  0  0  0  0  0
  -12.8527   -4.0727  -24.4987 H   0  0  0  0  0  0  0  0  0  0  0  0
  -13.3940   -2.4336  -24.9429 H   0  0  0  0  0  0  0  0  0  0  0  0
  -11.6693   -2.8497  -24.9809 H   0  0  0  0  0  0  0  0  0  0  0  0
  -12.3830   -0.7060  -21.8805 H   0  0  0  0  0  0  0  0  0  0  0  0
  -12.9352   -0.5483  -23.5329 H   0  0  0  0  0  0  0  0  0  0  0  0
  -10.5430    0.3400  -23.0883 H   0  0  0  0  0  0  0  0  0  0  0  0
  -10.6547   -0.8482  -24.3919 H   0  0  0  0  0  0  0  0  0  0  0  0
   -7.9713   -2.6559  -21.0470 H   0  0  0  0  0  0  0  0  0  0  0  0
   -7.0520   -1.8332  -22.2943 H   0  0  0  0  0  0  0  0  0  0  0  0
   -8.0705   -1.8995  -18.7683 H   0  0  0  0  0  0  0  0  0  0  0  0
   -4.8433    0.1465  -17.2180 H   0  0  0  0  0  0  0  0  0  0  0  0
   -3.3863    1.5108  -18.6657 H   0  0  0  0  0  0  0  0  0  0  0  0
   -2.5380    2.0449  -20.9343 H   0  0  0  0  0  0  0  0  0  0  0  0
   -3.7291    1.1486  -22.9505 H   0  0  0  0  0  0  0  0  0  0  0  0
   -5.7293   -0.2644  -22.6841 H   0  0  0  0  0  0  0  0  0  0  0  0
   -9.7567   -3.2394  -23.7774 H   0  0  0  0  0  0  0  0  0  0  0  0
   -9.2078   -3.4463  -22.1221 H   0  0  0  0  0  0  0  0  0  0  0  0
  -11.4323   -3.4851  -21.2502 H   0  0  0  0  0  0  0  0  0  0  0  0
  -11.4839   -4.4670  -22.6713 H   0  0  0  0  0  0  0  0  0  0  0  0
  1  2  1  0
  2  3  1  0
  2  4  1  0
  4  5  1  0
  5  6  1  0
  6  7  1  0
  7  8  2  0
  7  9  1  0
  9 10  1  0
 10 11  2  0
 11 12  1  0
 12 13  2  0
 13 14  1  0
 14 15  2  0
 15 16  1  0
 16 17  2  0
 17 18  1  0
 18 19  2  0
  6 20  1  0
 20 21  1  0
 21  2  1  0
 19 10  1  0
 19 14  1  0
  1 22  1  0
  1 23  1  0
  1 24  1  0
  3 25  1  0
  3 26  1  0
  3 27  1  0
  4 28  1  0
  4 29  1  0
  5 30  1  0
  5 31  1  0
  9 32  1  0
  9 33  1  0
 11 34  1  0
 13 35  1  0
 15 36  1  0
 16 37  1  0
 17 38  1  0
 18 39  1  0
 20 40  1  0
 20 41  1  0
 21 42  1  0
 21 43  1  0
M  END
$$$$

     RDKit          3D

 76 82  0  0  0  0  0  0  0  0999 V2000
  -10.5267    2.0649  -24.2218 O   0  0  0  0  0  0  0  0  0  0  0  0
  -10.1736    0.8831  -24.1377 C   0  0  0  0  0  0  0  0  0  0  0  0
  -11.0925   -0.1513  -23.5697 C   0  0  0  0  0  0  0  0  0  0  0  0
  -12.4618    0.1010  -23.5670 C   0  0  0  0  0  0  0  0  0  0  0  0
  -13.3368   -0.8396  -23.0622 C   0  0  0  0  0  0  0  0  0  0  0  0
  -12.8217   -2.0385  -22.5706 C   0  0  0  0  0  0  0  0  0  0  0  0
  -13.9090   -3.1930  -21.8510 Cl  0  0  0  0  0  0  0  0  0  0  0  0
  -11.4661   -2.3184  -22.5990 C   0  0  0  0  0  0  0  0  0  0  0  0
  -10.5685   -1.3364  -23.0419 C   0  0  0  0  0  0  0  0  0  0  0  0
   -9.0587   -1.4469  -22.9369 C   0  0  1  0  0  0  0  0  0  0  0  0
   -8.4879   -0.9071  -24.2821 C   0  0  0  0  0  0  0  0  0  0  0  0
   -8.9522    0.4526  -24.5416 N   0  0  0  0  0  0  0  0  0  0  0  0
   -8.1243    1.3349  -25.3543 C   0  0  0  0  0  0  0  0  0  0  0  0
   -7.4230    2.4516  -24.5760 C   0  0  0  0  0  0  0  0  0  0  0  0
   -8.3361    3.5859  -24.2054 N   0  0  0  0  0  0  0  0  0  0  0  0
   -8.9856    4.3485  -25.3342 C   0  0  0  0  0  0  0  0  0  0  0  0
   -8.0257    5.2918  -26.0348 C   0  0  0  0  0  0  0  0  0  0  0  0
   -7.4622    6.2093  -25.1179 O   0  0  0  0  0  0  0  0  0  0  0  0
   -6.7667    5.5285  -24.0892 C   0  0  0  0  0  0  0  0  0  0  0  0
   -7.6805    4.5866  -23.3043 C   0  0  0  0  0  0  0  0  0  0  0  0
   -8.4558   -0.5794  -21.7948 C   0  0  0  0  0  0  0  0  0  0  0  0
   -8.7273    0.5667  -21.5181 O   0  0  0  0  0  0  0  0  0  0  0  0
   -7.4838   -1.3257  -21.1578 N   0  0  0  0  0  0  0  0  0  0  0  0
   -6.6526   -0.8076  -20.1293 C   0  0  0  0  0  0  0  0  0  0  0  0
   -6.8683   -1.1790  -18.8233 C   0  0  0  0  0  0  0  0  0  0  0  0
   -6.0881   -0.8080  -17.7792 N   0  0  0  0  0  0  0  0  0  0  0  0
   -5.0604   -0.0371  -18.0333 C   0  0  0  0  0  0  0  0  0  0  0  0
   -4.7375    0.4457  -19.3328 C   0  0  0  0  0  0  0  0  0  0  0  0
   -3.6535    1.3390  -19.5388 C   0  0  0  0  0  0  0  0  0  0  0  0
   -3.3411    1.7643  -20.7992 C   0  0  0  0  0  0  0  0  0  0  0  0
   -4.0847    1.3119  -21.9111 C   0  0  0  0  0  0  0  0  0  0  0  0
   -5.1609    0.4737  -21.7330 C   0  0  0  0  0  0  0  0  0  0  0  0
   -5.5292    0.0317  -20.4283 C   0  0  0  0  0  0  0  0  0  0  0  0
   -7.2083   -2.5882  -21.8175 C   0  0  0  0  0  0  0  0  0  0  0  0
   -8.5368   -2.8472  -22.5349 C   0  0  2  0  0  0  0  0  0  0  0  0
   -8.4916   -3.8823  -23.6662 C   0  0  0  0  0  0  0  0  0  0  0  0
   -8.2307   -5.2302  -23.2059 N   0  0  0  0  0  0  0  0  0  0  0  0
   -6.9680   -5.7267  -23.1377 C   0  0  0  0  0  0  0  0  0  0  0  0
   -5.9861   -5.0173  -23.7277 N   0  0  0  0  0  0  0  0  0  0  0  0
   -4.7577   -5.5236  -23.6430 C   0  0  0  0  0  0  0  0  0  0  0  0
   -4.4736   -6.7020  -22.9680 C   0  0  0  0  0  0  0  0  0  0  0  0
   -5.5719   -7.3524  -22.4042 C   0  0  0  0  0  0  0  0  0  0  0  0
   -6.8136   -6.9021  -22.4942 N   0  0  0  0  0  0  0  0  0  0  0  0
  -12.8175    1.0426  -23.9699 H   0  0  0  0  0  0  0  0  0  0  0  0
  -14.4044   -0.6527  -23.0315 H   0  0  0  0  0  0  0  0  0  0  0  0
  -11.1332   -3.2907  -22.2516 H   0  0  0  0  0  0  0  0  0  0  0  0
   -7.3917   -0.8839  -24.2561 H   0  0  0  0  0  0  0  0  0  0  0  0
   -8.7958   -1.5626  -25.1076 H   0  0  0  0  0  0  0  0  0  0  0  0
   -7.3648    0.7145  -25.8378 H   0  0  0  0  0  0  0  0  0  0  0  0
   -8.7350    1.7634  -26.1555 H   0  0  0  0  0  0  0  0  0  0  0  0
   -7.0191    2.0369  -23.6403 H   0  0  0  0  0  0  0  0  0  0  0  0
   -6.5727    2.8168  -25.1624 H   0  0  0  0  0  0  0  0  0  0  0  0
   -9.1368    3.1493  -23.7191 H   0  0  0  0  0  0  0  0  0  0  0  0
   -9.4429    3.6536  -26.0381 H   0  0  0  0  0  0  0  0  0  0  0  0
   -9.7950    4.9309  -24.8868 H   0  0  0  0  0  0  0  0  0  0  0  0
   -7.2394    4.7218  -26.5550 H   0  0  0  0  0  0  0  0  0  0  0  0
   -8.5717    5.8788  -26.7803 H   0  0  0  0  0  0  0  0  0  0  0  0
   -6.3575    6.2939  -23.4240 H   0  0  0  0  0  0  0  0  0  0  0  0
   -5.9240    4.9609  -24.5148 H   0  0  0  0  0  0  0  0  0  0  0  0
   -8.4660    5.1625  -22.8101 H   0  0  0  0  0  0  0  0  0  0  0  0
   -7.1122    4.0564  -22.5336 H   0  0  0  0  0  0  0  0  0  0  0  0
   -7.7128   -1.8204  -18.5772 H   0  0  0  0  0  0  0  0  0  0  0  0
   -4.4291    0.2593  -17.1949 H   0  0  0  0  0  0  0  0  0  0  0  0
   -3.0981    1.6844  -18.6706 H   0  0  0  0  0  0  0  0  0  0  0  0
   -2.5184    2.4559  -20.9531 H   0  0  0  0  0  0  0  0  0  0  0  0
   -3.8071    1.6343  -22.9107 H   0  0  0  0  0  0  0  0  0  0  0  0
   -5.7418    0.1596  -22.5963 H   0  0  0  0  0  0  0  0  0  0  0  0
   -6.3611   -2.5234  -22.5222 H   0  0  0  0  0  0  0  0  0  0  0  0
   -6.9660   -3.3496  -21.0747 H   0  0  0  0  0  0  0  0  0  0  0  0
   -9.1999   -3.2018  -21.7334 H   0  0  0  0  0  0  0  0  0  0  0  0
   -9.4351   -3.8464  -24.2313 H   0  0  0  0  0  0  0  0  0  0  0  0
   -7.6804   -3.6253  -24.3574 H   0  0  0  0  0  0  0  0  0  0  0  0
   -8.9285   -5.7485  -22.6803 H   0  0  0  0  0  0  0  0  0  0  0  0
   -3.9861   -4.9345  -24.1450 H   0  0  0  0  0  0  0  0  0  0  0  0
   -3.4599   -7.0823  -22.8929 H   0  0  0  0  0  0  0  0  0  0  0  0
   -5.4486   -8.2894  -21.8596 H   0  0  0  0  0  0  0  0  0  0  0  0
  1  2  2  0
  2  3  1  0
  3  4  2  0
  4  5  1  0
  5  6  2  0
  6  7  1  0
  6  8  1  0
  8  9  2  0
  9 10  1  0
 10 11  1  6
 11 12  1  0
 12 13  1  0
 13 14  1  0
 14 15  1  0
 15 16  1  0
 16 17  1  0
 17 18  1  0
 18 19  1  0
 19 20  1  0
 10 21  1  0
 21 22  2  0
 21 23  1  0
 23 24  1  0
 24 25  2  0
 25 26  1  0
 26 27  2  0
 27 28  1  0
 28 29  2  0
 29 30  1  0
 30 31  2  0
 31 32  1  0
 32 33  2  0
 23 34  1  0
 34 35  1  0
 35 36  1  0
 36 37  1  0
 37 38  1  0
 38 39  2  0
 39 40  1  0
 40 41  2  0
 41 42  1  0
 42 43  2  0
 12  2  1  0
 20 15  1  0
 33 24  1  0
 43 38  1  0
  9  3  1  0
 35 10  1  0
 33 28  1  0
  4 44  1  0
  5 45  1  0
  8 46  1  0
 11 47  1  0
 11 48  1  0
 13 49  1  0
 13 50  1  0
 14 51  1  0
 14 52  1  0
 15 53  1  0
 16 54  1  0
 16 55  1  0
 17 56  1  0
 17 57  1  0
 19 58  1  0
 19 59  1  0
 20 60  1  0
 20 61  1  0
 25 62  1  0
 27 63  1  0
 29 64  1  0
 30 65  1  0
 31 66  1  0
 32 67  1  0
 34 68  1  0
 34 69  1  0
 35 70  1  1
 36 71  1  0
 36 72  1  0
 37 73  1  0
 40 74  1  0
 41 75  1  0
 42 76  1  0
M  CHG  1  15   1
M  END
$$$$

     RDKit          3D

 58 63  0  0  0  0  0  0  0  0999 V2000
   -4.7312    4.5315  -23.2356 C   0  0  0  0  0  0  0  0  0  0  0  0
   -5.9105    3.6534  -23.5443 C   0  0  0  0  0  0  0  0  0  0  0  0
   -6.0727    2.7785  -24.6585 C   0  0  0  0  0  0  0  0  0  0  0  0
   -7.3030    2.2270  -24.4602 C   0  0  0  0  0  0  0  0  0  0  0  0
   -8.1467    1.3313  -25.3258 C   0  0  0  0  0  0  0  0  0  0  0  0
   -8.9901    0.4317  -24.5799 N   0  0  0  0  0  0  0  0  0  0  0  0
   -8.5020   -0.9031  -24.2809 C   0  0  0  0  0  0  0  0  0  0  0  0
   -9.0717   -1.4303  -22.9340 C   0  0  2  0  0  0  0  0  0  0  0  0
   -8.4777   -0.5786  -21.7728 C   0  0  0  0  0  0  0  0  0  0  0  0
   -8.7713    0.5512  -21.4748 O   0  0  0  0  0  0  0  0  0  0  0  0
   -7.4933   -1.3231  -21.1465 N   0  0  0  0  0  0  0  0  0  0  0  0
   -6.6453   -0.8042  -20.1305 C   0  0  0  0  0  0  0  0  0  0  0  0
   -6.8584   -1.1778  -18.8239 C   0  0  0  0  0  0  0  0  0  0  0  0
   -6.0698   -0.8202  -17.7820 N   0  0  0  0  0  0  0  0  0  0  0  0
   -5.0444   -0.0451  -18.0409 C   0  0  0  0  0  0  0  0  0  0  0  0
   -4.7250    0.4439  -19.3388 C   0  0  0  0  0  0  0  0  0  0  0  0
   -3.6541    1.3539  -19.5392 C   0  0  0  0  0  0  0  0  0  0  0  0
   -3.3516    1.7854  -20.8008 C   0  0  0  0  0  0  0  0  0  0  0  0
   -4.0873    1.3260  -21.9156 C   0  0  0  0  0  0  0  0  0  0  0  0
   -5.1572    0.4814  -21.7413 C   0  0  0  0  0  0  0  0  0  0  0  0
   -5.5216    0.0374  -20.4350 C   0  0  0  0  0  0  0  0  0  0  0  0
   -7.2142   -2.5753  -21.8209 C   0  0  0  0  0  0  0  0  0  0  0  0
   -8.5337   -2.8355  -22.5587 C   0  0  2  0  0  0  0  0  0  0  0  0
   -8.4285   -3.8413  -23.6953 C   0  0  0  0  0  0  0  0  0  0  0  0
  -10.5844   -1.3212  -23.0487 C   0  0  0  0  0  0  0  0  0  0  0  0
  -11.4869   -2.3000  -22.6069 C   0  0  0  0  0  0  0  0  0  0  0  0
  -12.8395   -2.0097  -22.6022 C   0  0  0  0  0  0  0  0  0  0  0  0
  -13.6926   -2.9226  -22.1077 F   0  0  0  0  0  0  0  0  0  0  0  0
  -13.3735   -0.8133  -23.0646 C   0  0  0  0  0  0  0  0  0  0  0  0
  -12.4932    0.1155  -23.5734 C   0  0  0  0  0  0  0  0  0  0  0  0
  -11.1244   -0.1497  -23.5979 C   0  0  0  0  0  0  0  0  0  0  0  0
  -10.2406    0.8664  -24.2435 C   0  0  0  0  0  0  0  0  0  0  0  0
  -10.6203    2.0100  -24.4583 O   0  0  0  0  0  0  0  0  0  0  0  0
   -7.8310    2.6986  -23.3274 O   0  0  0  0  0  0  0  0  0  0  0  0
   -6.9618    3.6013  -22.7536 N   0  0  0  0  0  0  0  0  0  0  0  0
   -4.5538    4.5482  -22.1546 H   0  0  0  0  0  0  0  0  0  0  0  0
   -4.8724    5.5653  -23.5752 H   0  0  0  0  0  0  0  0  0  0  0  0
   -3.8312    4.1511  -23.7307 H   0  0  0  0  0  0  0  0  0  0  0  0
   -5.3764    2.5865  -25.4650 H   0  0  0  0  0  0  0  0  0  0  0  0
   -7.5052    0.7495  -25.9932 H   0  0  0  0  0  0  0  0  0  0  0  0
   -8.7958    1.9452  -25.9599 H   0  0  0  0  0  0  0  0  0  0  0  0
   -8.7847   -1.5943  -25.0862 H   0  0  0  0  0  0  0  0  0  0  0  0
   -7.4079   -0.8614  -24.2388 H   0  0  0  0  0  0  0  0  0  0  0  0
   -7.7109   -1.8104  -18.5781 H   0  0  0  0  0  0  0  0  0  0  0  0
   -4.4014    0.2428  -17.2106 H   0  0  0  0  0  0  0  0  0  0  0  0
   -3.0909    1.6890  -18.6719 H   0  0  0  0  0  0  0  0  0  0  0  0
   -2.5382    2.4881  -20.9490 H   0  0  0  0  0  0  0  0  0  0  0  0
   -3.8159    1.6556  -22.9163 H   0  0  0  0  0  0  0  0  0  0  0  0
   -5.7300    0.1522  -22.6028 H   0  0  0  0  0  0  0  0  0  0  0  0
   -6.3559   -2.4923  -22.5160 H   0  0  0  0  0  0  0  0  0  0  0  0
   -6.9805   -3.3438  -21.0783 H   0  0  0  0  0  0  0  0  0  0  0  0
   -9.2098   -3.2276  -21.7884 H   0  0  0  0  0  0  0  0  0  0  0  0
   -9.3863   -3.9280  -24.2176 H   0  0  0  0  0  0  0  0  0  0  0  0
   -7.6784   -3.5237  -24.4280 H   0  0  0  0  0  0  0  0  0  0  0  0
   -8.1403   -4.8354  -23.3353 H   0  0  0  0  0  0  0  0  0  0  0  0
  -11.1808   -3.2822  -22.2607 H   0  0  0  0  0  0  0  0  0  0  0  0
  -14.4462   -0.6467  -23.0301 H   0  0  0  0  0  0  0  0  0  0  0  0
  -12.8366    1.0694  -23.9547 H   0  0  0  0  0  0  0  0  0  0  0  0
  1  2  1  0
  2  3  1  0
  3  4  2  0
  4  5  1  0
  5  6  1  0
  6  7  1  0
  8  7  1  6
  8  9  1  0
  9 10  2  0
  9 11  1  0
 11 12  1  0
 12 13  2  0
 13 14  1  0
 14 15  2  0
 15 16  1  0
 16 17  2  0
 17 18  1  0
 18 19  2  0
 19 20  1  0
 20 21  2  0
 11 22  1  0
 22 23  1  0
 23 24  1  0
  8 25  1  0
 25 26  2  0
 26 27  1  0
 27 28  1  0
 27 29  2  0
 29 30  1  0
 30 31  2  0
 31 32  1  0
 32 33  2  0
  4 34  1  0
 34 35  1  0
 35  2  2  0
 32  6  1  0
 23  8  1  0
 31 25  1  0
 21 12  1  0
 21 16  1  0
  1 36  1  0
  1 37  1  0
  1 38  1  0
  3 39  1  0
  5 40  1  0
  5 41  1  0
  7 42  1  0
  7 43  1  0
 13 44  1  0
 15 45  1  0
 17 46  1  0
 18 47  1  0
 19 48  1  0
 20 49  1  0
 22 50  1  0
 22 51  1  0
 23 52  1  1
 24 53  1  0
 24 54  1  0
 24 55  1  0
 26 56  1  0
 29 57  1  0
 30 58  1  0
M  END
$$$$

     RDKit          3D

 46 48  0  0  0  0  0  0  0  0999 V2000
   -8.7743    1.1620  -24.4931 C   0  0  0  0  0  0  0  0  0  0  0  0
   -8.8538   -0.1371  -25.3054 C   0  0  0  0  0  0  0  0  0  0  0  0
   -7.8458   -0.0862  -26.4457 C   0  0  0  0  0  0  0  0  0  0  0  0
   -8.7114   -1.3964  -24.4494 C   0  0  0  0  0  0  0  0  0  0  0  0
   -9.7743   -1.3646  -23.3327 C   0  0  0  0  0  0  0  0  0  0  0  0
   -9.7381   -2.6963  -22.5778 C   0  0  0  0  0  0  0  0  0  0  0  0
   -8.3897   -2.8334  -22.0163 N   0  0  0  0  0  0  0  0  0  0  0  0
   -7.9892   -1.9769  -20.9957 C   0  0  0  0  0  0  0  0  0  0  0  0
   -8.6596   -0.9836  -20.7381 O   0  0  0  0  0  0  0  0  0  0  0  0
   -6.6403   -2.2415  -20.3038 C   0  0  0  0  0  0  0  0  0  0  0  0
   -6.0685   -1.1797  -19.3625 C   0  0  0  0  0  0  0  0  0  0  0  0
   -6.3474   -1.2095  -17.9882 C   0  0  0  0  0  0  0  0  0  0  0  0
   -5.6825   -0.4785  -17.0750 N   0  0  0  0  0  0  0  0  0  0  0  0
   -4.6913    0.3200  -17.5079 C   0  0  0  0  0  0  0  0  0  0  0  0
   -4.3885    0.4797  -18.8652 C   0  0  0  0  0  0  0  0  0  0  0  0
   -3.3668    1.3426  -19.2920 C   0  0  0  0  0  0  0  0  0  0  0  0
   -3.1190    1.5177  -20.6566 C   0  0  0  0  0  0  0  0  0  0  0  0
   -3.8866    0.8339  -21.6008 C   0  0  0  0  0  0  0  0  0  0  0  0
   -4.8780   -0.0547  -21.1788 C   0  0  0  0  0  0  0  0  0  0  0  0
   -5.1237   -0.2496  -19.8148 C   0  0  0  0  0  0  0  0  0  0  0  0
   -7.3697   -2.9841  -23.0572 C   0  0  0  0  0  0  0  0  0  0  0  0
   -7.3366   -1.6252  -23.7939 C   0  0  0  0  0  0  0  0  0  0  0  0
   -7.7320    1.4415  -24.3179 H   0  0  0  0  0  0  0  0  0  0  0  0
   -9.2823    1.0655  -23.5274 H   0  0  0  0  0  0  0  0  0  0  0  0
   -9.2669    1.9579  -25.0560 H   0  0  0  0  0  0  0  0  0  0  0  0
   -9.8485   -0.2161  -25.7427 H   0  0  0  0  0  0  0  0  0  0  0  0
   -7.9610   -0.9560  -27.0984 H   0  0  0  0  0  0  0  0  0  0  0  0
   -6.8259   -0.0750  -26.0614 H   0  0  0  0  0  0  0  0  0  0  0  0
   -8.0074    0.8224  -27.0299 H   0  0  0  0  0  0  0  0  0  0  0  0
   -8.9051   -2.2600  -25.0958 H   0  0  0  0  0  0  0  0  0  0  0  0
  -10.7611   -1.1976  -23.7697 H   0  0  0  0  0  0  0  0  0  0  0  0
   -9.5677   -0.5453  -22.6330 H   0  0  0  0  0  0  0  0  0  0  0  0
  -10.5060   -2.7231  -21.7932 H   0  0  0  0  0  0  0  0  0  0  0  0
   -9.9534   -3.5204  -23.2678 H   0  0  0  0  0  0  0  0  0  0  0  0
   -6.7364   -3.1869  -19.7594 H   0  0  0  0  0  0  0  0  0  0  0  0
   -5.8938   -2.4080  -21.0865 H   0  0  0  0  0  0  0  0  0  0  0  0
   -7.1229   -1.8883  -17.6565 H   0  0  0  0  0  0  0  0  0  0  0  0
   -4.1102    0.8676  -16.7699 H   0  0  0  0  0  0  0  0  0  0  0  0
   -2.7702    1.8853  -18.5685 H   0  0  0  0  0  0  0  0  0  0  0  0
   -2.3345    2.1921  -20.9799 H   0  0  0  0  0  0  0  0  0  0  0  0
   -3.7138    0.9915  -22.6623 H   0  0  0  0  0  0  0  0  0  0  0  0
   -5.4778   -0.5868  -21.9067 H   0  0  0  0  0  0  0  0  0  0  0  0
   -7.6466   -3.7900  -23.7518 H   0  0  0  0  0  0  0  0  0  0  0  0
   -6.3931   -3.2348  -22.6213 H   0  0  0  0  0  0  0  0  0  0  0  0
   -7.1262   -0.8232  -23.0796 H   0  0  0  0  0  0  0  0  0  0  0  0
   -6.5393   -1.6166  -24.5378 H   0  0  0  0  0  0  0  0  0  0  0  0
  1  2  1  0
  2  3  1  0
  2  4  1  0
  4  5  1  0
  5  6  1  0
  6  7  1  0
  7  8  1  0
  8  9  2  0
  8 10  1  0
 10 11  1  0
 11 12  2  0
 12 13  1  0
 13 14  2  0
 14 15  1  0
 15 16  2  0
 16 17  1  0
 17 18  2  0
 18 19  1  0
 19 20  2  0
  7 21  1  0
 21 22  1  0
 22  4  1  0
 20 11  1  0
 20 15  1  0
  1 23  1  0
  1 24  1  0
  1 25  1  0
  2 26  1  0
  3 27  1  0
  3 28  1  0
  3 29  1  0
  4 30  1  0
  5 31  1  0
  5 32  1  0
  6 33  1  0
  6 34  1  0
 10 35  1  0
 10 36  1  0
 12 37  1  0
 14 38  1  0
 16 39  1  0
 17 40  1  0
 18 41  1  0
 19 42  1  0
 21 43  1  0
 21 44  1  0
 22 45  1  0
 22 46  1  0
M  END
$$$$

     RDKit          3D

 66 71  0  0  0  0  0  0  0  0999 V2000
   -8.4219   -3.8242  -23.7076 C   0  0  0  0  0  0  0  0  0  0  0  0
   -8.5257   -2.8279  -22.5607 C   0  0  1  0  0  0  0  0  0  0  0  0
   -7.2192   -2.5708  -21.8041 C   0  0  0  0  0  0  0  0  0  0  0  0
   -7.5040   -1.3225  -21.1333 N   0  0  0  0  0  0  0  0  0  0  0  0
   -6.6504   -0.8135  -20.1229 C   0  0  0  0  0  0  0  0  0  0  0  0
   -6.8719   -1.1705  -18.8166 C   0  0  0  0  0  0  0  0  0  0  0  0
   -6.1006   -0.7816  -17.7725 N   0  0  0  0  0  0  0  0  0  0  0  0
   -5.0767   -0.0042  -18.0219 C   0  0  0  0  0  0  0  0  0  0  0  0
   -4.7512    0.4640  -19.3269 C   0  0  0  0  0  0  0  0  0  0  0  0
   -3.6675    1.3537  -19.5388 C   0  0  0  0  0  0  0  0  0  0  0  0
   -3.3361    1.7650  -20.7985 C   0  0  0  0  0  0  0  0  0  0  0  0
   -4.0766    1.3015  -21.9072 C   0  0  0  0  0  0  0  0  0  0  0  0
   -5.1562    0.4692  -21.7279 C   0  0  0  0  0  0  0  0  0  0  0  0
   -5.5318    0.0312  -20.4241 C   0  0  0  0  0  0  0  0  0  0  0  0
   -8.4529   -0.5659  -21.7914 C   0  0  0  0  0  0  0  0  0  0  0  0
   -8.7335    0.5797  -21.5153 O   0  0  0  0  0  0  0  0  0  0  0  0
   -9.0580   -1.4220  -22.9342 C   0  0  1  0  0  0  0  0  0  0  0  0
   -8.5073   -0.8863  -24.2760 C   0  0  0  0  0  0  0  0  0  0  0  0
   -8.9748    0.4713  -24.5393 N   0  0  0  0  0  0  0  0  0  0  0  0
   -8.1257    1.3370  -25.3404 C   0  0  0  0  0  0  0  0  0  0  0  0
   -7.4209    2.4581  -24.5718 C   0  0  0  0  0  0  0  0  0  0  0  0
   -8.3387    3.5926  -24.2034 N   0  0  0  0  0  0  0  0  0  0  0  0
   -7.6750    4.5973  -23.3056 C   0  0  0  0  0  0  0  0  0  0  0  0
   -6.7594    5.5311  -24.1069 C   0  0  0  0  0  0  0  0  0  0  0  0
   -7.4580    6.2087  -25.1331 O   0  0  0  0  0  0  0  0  0  0  0  0
   -8.0401    5.2942  -26.0375 C   0  0  0  0  0  0  0  0  0  0  0  0
   -8.9986    4.3567  -25.3280 C   0  0  0  0  0  0  0  0  0  0  0  0
  -10.2069    0.8996  -24.1686 C   0  0  0  0  0  0  0  0  0  0  0  0
  -10.5683    2.0830  -24.2534 O   0  0  0  0  0  0  0  0  0  0  0  0
  -11.1125   -0.1423  -23.6011 C   0  0  0  0  0  0  0  0  0  0  0  0
  -12.4837    0.1092  -23.5945 C   0  0  0  0  0  0  0  0  0  0  0  0
  -13.3568   -0.8150  -23.0519 C   0  0  0  0  0  0  0  0  0  0  0  0
  -12.8233   -1.9958  -22.5330 C   0  0  0  0  0  0  0  0  0  0  0  0
  -13.8721   -3.1440  -21.7415 Cl  0  0  0  0  0  0  0  0  0  0  0  0
  -11.4675   -2.2745  -22.5728 C   0  0  0  0  0  0  0  0  0  0  0  0
  -10.5704   -1.3086  -23.0411 C   0  0  0  0  0  0  0  0  0  0  0  0
   -8.1315   -4.8202  -23.3627 H   0  0  0  0  0  0  0  0  0  0  0  0
   -9.3760   -3.9204  -24.2378 H   0  0  0  0  0  0  0  0  0  0  0  0
   -7.6673   -3.5119  -24.4372 H   0  0  0  0  0  0  0  0  0  0  0  0
   -9.2245   -3.2049  -21.8079 H   0  0  0  0  0  0  0  0  0  0  0  0
   -6.9698   -3.3465  -21.0757 H   0  0  0  0  0  0  0  0  0  0  0  0
   -6.3611   -2.4719  -22.4889 H   0  0  0  0  0  0  0  0  0  0  0  0
   -7.7432   -1.7706  -18.5562 H   0  0  0  0  0  0  0  0  0  0  0  0
   -4.4607    0.3185  -17.1771 H   0  0  0  0  0  0  0  0  0  0  0  0
   -3.1207    1.7075  -18.6717 H   0  0  0  0  0  0  0  0  0  0  0  0
   -2.5166    2.4619  -20.9505 H   0  0  0  0  0  0  0  0  0  0  0  0
   -3.7889    1.6134  -22.9060 H   0  0  0  0  0  0  0  0  0  0  0  0
   -5.7351    0.1530  -22.5920 H   0  0  0  0  0  0  0  0  0  0  0  0
   -7.4139   -0.8592  -24.2399 H   0  0  0  0  0  0  0  0  0  0  0  0
   -8.8145   -1.5603  -25.0879 H   0  0  0  0  0  0  0  0  0  0  0  0
   -8.7219    1.7567  -26.1564 H   0  0  0  0  0  0  0  0  0  0  0  0
   -7.3726    0.6926  -25.8031 H   0  0  0  0  0  0  0  0  0  0  0  0
   -6.5893    2.8161  -25.1864 H   0  0  0  0  0  0  0  0  0  0  0  0
   -6.9900    2.0581  -23.6390 H   0  0  0  0  0  0  0  0  0  0  0  0
   -9.1542    3.1441  -23.7533 H   0  0  0  0  0  0  0  0  0  0  0  0
   -7.0964    4.0662  -22.5451 H   0  0  0  0  0  0  0  0  0  0  0  0
   -8.4473    5.1762  -22.7935 H   0  0  0  0  0  0  0  0  0  0  0  0
   -5.9224    4.9584  -24.5384 H   0  0  0  0  0  0  0  0  0  0  0  0
   -6.3287    6.3084  -23.4694 H   0  0  0  0  0  0  0  0  0  0  0  0
   -7.2623    4.7118  -26.5557 H   0  0  0  0  0  0  0  0  0  0  0  0
   -8.5717    5.8930  -26.7832 H   0  0  0  0  0  0  0  0  0  0  0  0
   -9.4504    3.6535  -26.0259 H   0  0  0  0  0  0  0  0  0  0  0  0
   -9.8109    4.9288  -24.8690 H   0  0  0  0  0  0  0  0  0  0  0  0
  -12.8412    1.0571  -23.9864 H   0  0  0  0  0  0  0  0  0  0  0  0
  -14.4237   -0.6212  -22.9727 H   0  0  0  0  0  0  0  0  0  0  0  0
  -11.1393   -3.2299  -22.1769 H   0  0  0  0  0  0  0  0  0  0  0  0
  1  2  1  0
  2  3  1  0
  3  4  1  0
  4  5  1  0
  5  6  2  0
  6  7  1  0
  7  8  2  0
  8  9  1  0
  9 10  2  0
 10 11  1  0
 11 12  2  0
 12 13  1  0
 13 14  2  0
  4 15  1  0
 15 16  2  0
 15 17  1  0
 17 18  1  6
 18 19  1  0
 19 20  1  0
 20 21  1  0
 21 22  1  0
 22 23  1  0
 23 24  1  0
 24 25  1  0
 25 26  1  0
 26 27  1  0
 19 28  1  0
 28 29  2  0
 28 30  1  0
 30 31  2  0
 31 32  1  0
 32 33  2  0
 33 34  1  0
 33 35  1  0
 35 36  2  0
 17  2  1  0
 27 22  1  0
 36 30  1  0
 14  5  1  0
 36 17  1  0
 14  9  1  0
  1 37  1  0
  1 38  1  0
  1 39  1  0
  2 40  1  1
  3 41  1  0
  3 42  1  0
  6 43  1  0
  8 44  1  0
 10 45  1  0
 11 46  1  0
 12 47  1  0
 13 48  1  0
 18 49  1  0
 18 50  1  0
 20 51  1  0
 20 52  1  0
 21 53  1  0
 21 54  1  0
 22 55  1  0
 23 56  1  0
 23 57  1  0
 24 58  1  0
 24 59  1  0
 26 60  1  0
 26 61  1  0
 27 62  1  0
 27 63  1  0
 31 64  1  0
 32 65  1  0
 35 66  1  0
M  CHG  1  22   1
M  END
$$$$

     RDKit          3D

 60 65  0  0  0  0  0  0  0  0999 V2000
  -10.3168   -5.1723  -23.9623 C   0  0  0  0  0  0  0  0  0  0  0  0
   -9.5875   -4.0497  -24.3878 O   0  0  0  0  0  0  0  0  0  0  0  0
   -8.3636   -3.8437  -23.7130 C   0  0  0  0  0  0  0  0  0  0  0  0
   -8.5174   -2.8520  -22.5626 C   0  0  1  0  0  0  0  0  0  0  0  0
   -7.2138   -2.5959  -21.8005 C   0  0  0  0  0  0  0  0  0  0  0  0
   -7.4957   -1.3448  -21.1250 N   0  0  0  0  0  0  0  0  0  0  0  0
   -6.6418   -0.8262  -20.1117 C   0  0  0  0  0  0  0  0  0  0  0  0
   -6.8635   -1.1813  -18.8019 C   0  0  0  0  0  0  0  0  0  0  0  0
   -6.0821   -0.8069  -17.7615 N   0  0  0  0  0  0  0  0  0  0  0  0
   -5.0564   -0.0355  -18.0228 C   0  0  0  0  0  0  0  0  0  0  0  0
   -4.7285    0.4353  -19.3260 C   0  0  0  0  0  0  0  0  0  0  0  0
   -3.6564    1.3428  -19.5338 C   0  0  0  0  0  0  0  0  0  0  0  0
   -3.3476    1.7674  -20.7957 C   0  0  0  0  0  0  0  0  0  0  0  0
   -4.0779    1.2944  -21.9084 C   0  0  0  0  0  0  0  0  0  0  0  0
   -5.1401    0.4381  -21.7272 C   0  0  0  0  0  0  0  0  0  0  0  0
   -5.5139    0.0054  -20.4201 C   0  0  0  0  0  0  0  0  0  0  0  0
   -8.4415   -0.5861  -21.7819 C   0  0  0  0  0  0  0  0  0  0  0  0
   -8.6979    0.5662  -21.5060 O   0  0  0  0  0  0  0  0  0  0  0  0
   -9.0546   -1.4394  -22.9309 C   0  0  1  0  0  0  0  0  0  0  0  0
   -8.5072   -0.9114  -24.2835 C   0  0  0  0  0  0  0  0  0  0  0  0
   -8.9669    0.4417  -24.5651 N   0  0  0  0  0  0  0  0  0  0  0  0
   -8.1446    1.3519  -25.3466 C   0  0  0  0  0  0  0  0  0  0  0  0
   -7.7960    2.6481  -24.6411 C   0  0  0  0  0  0  0  0  0  0  0  0
   -7.8488    3.9644  -25.1632 C   0  0  0  0  0  0  0  0  0  0  0  0
   -7.4842    4.8777  -24.2692 N   0  0  0  0  0  0  0  0  0  0  0  0
   -7.2067    4.1688  -23.1710 N   0  0  0  0  0  0  0  0  0  0  0  0
   -7.3944    2.8382  -23.3341 C   0  0  0  0  0  0  0  0  0  0  0  0
  -10.2245    0.8694  -24.2372 C   0  0  0  0  0  0  0  0  0  0  0  0
  -10.6165    2.0066  -24.4579 O   0  0  0  0  0  0  0  0  0  0  0  0
  -11.1061   -0.1580  -23.6008 C   0  0  0  0  0  0  0  0  0  0  0  0
  -12.4764    0.0944  -23.5802 C   0  0  0  0  0  0  0  0  0  0  0  0
  -13.3487   -0.8361  -23.0545 C   0  0  0  0  0  0  0  0  0  0  0  0
  -12.8188   -2.0261  -22.5595 C   0  0  0  0  0  0  0  0  0  0  0  0
  -13.8879   -3.1973  -21.8340 Cl  0  0  0  0  0  0  0  0  0  0  0  0
  -11.4613   -2.2948  -22.5750 C   0  0  0  0  0  0  0  0  0  0  0  0
  -10.5660   -1.3213  -23.0353 C   0  0  0  0  0  0  0  0  0  0  0  0
  -10.5139   -5.1710  -22.8813 H   0  0  0  0  0  0  0  0  0  0  0  0
   -9.8009   -6.1091  -24.2161 H   0  0  0  0  0  0  0  0  0  0  0  0
  -11.2740   -5.1458  -24.4868 H   0  0  0  0  0  0  0  0  0  0  0  0
   -7.9335   -4.7957  -23.3578 H   0  0  0  0  0  0  0  0  0  0  0  0
   -7.6637   -3.4262  -24.4486 H   0  0  0  0  0  0  0  0  0  0  0  0
   -9.2219   -3.2544  -21.8282 H   0  0  0  0  0  0  0  0  0  0  0  0
   -6.9793   -3.3680  -21.0628 H   0  0  0  0  0  0  0  0  0  0  0  0
   -6.3542   -2.5048  -22.4891 H   0  0  0  0  0  0  0  0  0  0  0  0
   -7.7247   -1.8001  -18.5541 H   0  0  0  0  0  0  0  0  0  0  0  0
   -4.4300    0.2720  -17.1863 H   0  0  0  0  0  0  0  0  0  0  0  0
   -3.1068    1.6970  -18.6652 H   0  0  0  0  0  0  0  0  0  0  0  0
   -2.5352    2.4700  -20.9491 H   0  0  0  0  0  0  0  0  0  0  0  0
   -3.8009    1.6144  -22.9093 H   0  0  0  0  0  0  0  0  0  0  0  0
   -5.7048    0.1044  -22.5928 H   0  0  0  0  0  0  0  0  0  0  0  0
   -7.4136   -0.9050  -24.2507 H   0  0  0  0  0  0  0  0  0  0  0  0
   -8.8296   -1.6106  -25.0682 H   0  0  0  0  0  0  0  0  0  0  0  0
   -7.2446    0.7917  -25.6226 H   0  0  0  0  0  0  0  0  0  0  0  0
   -8.6535    1.5892  -26.2897 H   0  0  0  0  0  0  0  0  0  0  0  0
   -8.1747    4.2927  -26.1459 H   0  0  0  0  0  0  0  0  0  0  0  0
   -6.9071    4.6512  -22.3329 H   0  0  0  0  0  0  0  0  0  0  0  0
   -7.3057    2.1685  -22.4902 H   0  0  0  0  0  0  0  0  0  0  0  0
  -12.8239    1.0433  -23.9727 H   0  0  0  0  0  0  0  0  0  0  0  0
  -14.4170   -0.6538  -23.0114 H   0  0  0  0  0  0  0  0  0  0  0  0
  -11.1387   -3.2642  -22.2150 H   0  0  0  0  0  0  0  0  0  0  0  0
  1  2  1  0
  2  3  1  0
  3  4  1  0
  4  5  1  0
  5  6  1  0
  6  7  1  0
  7  8  2  0
  8  9  1  0
  9 10  2  0
 10 11  1  0
 11 12  2  0
 12 13  1  0
 13 14  2  0
 14 15  1  0
 15 16  2  0
  6 17  1  0
 17 18  2  0
 17 19  1  0
 19 20  1  6
 20 21  1  0
 21 22  1  0
 22 23  1  0
 23 24  1  0
 24 25  2  0
 25 26  1  0
 26 27  1  0
 21 28  1  0
 28 29  2  0
 28 30  1  0
 30 31  2  0
 31 32  1  0
 32 33  2  0
 33 34  1  0
 33 35  1  0
 35 36  2  0
 19  4  1  0
 27 23  2  0
 36 30  1  0
 16  7  1  0
 36 19  1  0
 16 11  1  0
  1 37  1  0
  1 38  1  0
  1 39  1  0
  3 40  1  0
  3 41  1  0
  4 42  1  1
  5 43  1  0
  5 44  1  0
  8 45  1  0
 10 46  1  0
 12 47  1  0
 13 48  1  0
 14 49  1  0
 15 50  1  0
 20 51  1  0
 20 52  1  0
 22 53  1  0
 22 54  1  0
 24 55  1  0
 26 56  1  0
 27 57  1  0
 31 58  1  0
 32 59  1  0
 35 60  1  0
M  END
$$$$

     RDKit          3D

 50 54  0  0  0  0  0  0  0  0999 V2000
   -8.6389   -3.6566  -23.8197 C   0  0  0  0  0  0  0  0  0  0  0  0
   -8.7240   -2.7167  -22.6146 C   0  0  1  0  0  0  0  0  0  0  0  0
   -7.3640   -2.4614  -21.9443 C   0  0  0  0  0  0  0  0  0  0  0  0
   -7.5894   -1.2115  -21.2391 N   0  0  0  0  0  0  0  0  0  0  0  0
   -6.7531   -0.7719  -20.1816 C   0  0  0  0  0  0  0  0  0  0  0  0
   -7.0201   -1.1537  -18.8476 C   0  0  0  0  0  0  0  0  0  0  0  0
   -6.2470   -0.8209  -17.7952 N   0  0  0  0  0  0  0  0  0  0  0  0
   -5.1584   -0.0687  -18.0278 C   0  0  0  0  0  0  0  0  0  0  0  0
   -4.8112    0.3854  -19.3062 C   0  0  0  0  0  0  0  0  0  0  0  0
   -3.6971    1.2180  -19.4893 C   0  0  0  0  0  0  0  0  0  0  0  0
   -3.3417    1.6415  -20.7716 C   0  0  0  0  0  0  0  0  0  0  0  0
   -4.0871    1.2260  -21.8792 C   0  0  0  0  0  0  0  0  0  0  0  0
   -5.2186    0.4206  -21.6969 C   0  0  0  0  0  0  0  0  0  0  0  0
   -5.6038    0.0084  -20.4111 C   0  0  0  0  0  0  0  0  0  0  0  0
   -8.6367   -0.5159  -21.8263 C   0  0  0  0  0  0  0  0  0  0  0  0
   -9.0101    0.5981  -21.4930 O   0  0  0  0  0  0  0  0  0  0  0  0
   -9.2552   -1.3056  -22.9751 C   0  0  1  0  0  0  0  0  0  0  0  0
   -8.6411   -0.5599  -24.1810 C   0  0  0  0  0  0  0  0  0  0  0  0
   -9.0876    0.8328  -24.1456 N   0  0  0  0  0  0  0  0  0  0  0  0
   -8.1360    1.9348  -24.3731 C   0  0  0  0  0  0  0  0  0  0  0  0
   -7.7670    2.6248  -23.1260 C   0  0  0  0  0  0  0  0  0  0  0  0
   -7.4167    3.1914  -22.1735 N   0  0  0  0  0  0  0  0  0  0  0  0
  -10.4563    1.0614  -24.0007 C   0  0  0  0  0  0  0  0  0  0  0  0
  -10.9055    2.1534  -24.3236 O   0  0  0  0  0  0  0  0  0  0  0  0
  -11.3562   -0.0147  -23.5323 C   0  0  0  0  0  0  0  0  0  0  0  0
  -12.7608    0.1121  -23.5664 C   0  0  0  0  0  0  0  0  0  0  0  0
  -13.5737   -0.9335  -23.1125 C   0  0  0  0  0  0  0  0  0  0  0  0
  -13.0025   -2.1087  -22.6267 C   0  0  0  0  0  0  0  0  0  0  0  0
  -13.7931   -3.0883  -22.1269 F   0  0  0  0  0  0  0  0  0  0  0  0
  -11.6109   -2.2511  -22.6473 C   0  0  0  0  0  0  0  0  0  0  0  0
  -10.7750   -1.2038  -23.0608 C   0  0  0  0  0  0  0  0  0  0  0  0
   -7.9410   -3.2704  -24.5727 H   0  0  0  0  0  0  0  0  0  0  0  0
   -8.3020   -4.6495  -23.4959 H   0  0  0  0  0  0  0  0  0  0  0  0
   -9.6298   -3.7617  -24.2764 H   0  0  0  0  0  0  0  0  0  0  0  0
   -9.3836   -3.1758  -21.8633 H   0  0  0  0  0  0  0  0  0  0  0  0
   -6.5695   -2.3437  -22.6915 H   0  0  0  0  0  0  0  0  0  0  0  0
   -7.0928   -3.2754  -21.2614 H   0  0  0  0  0  0  0  0  0  0  0  0
   -7.9046   -1.7542  -18.6621 H   0  0  0  0  0  0  0  0  0  0  0  0
   -4.5311    0.2118  -17.1878 H   0  0  0  0  0  0  0  0  0  0  0  0
   -3.1160    1.5529  -18.6343 H   0  0  0  0  0  0  0  0  0  0  0  0
   -2.4856    2.2958  -20.9040 H   0  0  0  0  0  0  0  0  0  0  0  0
   -3.7904    1.5349  -22.8778 H   0  0  0  0  0  0  0  0  0  0  0  0
   -5.8060    0.1155  -22.5569 H   0  0  0  0  0  0  0  0  0  0  0  0
   -7.5421   -0.6116  -24.1449 H   0  0  0  0  0  0  0  0  0  0  0  0
   -8.9845   -1.0246  -25.1167 H   0  0  0  0  0  0  0  0  0  0  0  0
   -8.5392    2.6829  -25.0641 H   0  0  0  0  0  0  0  0  0  0  0  0
   -7.2225    1.5388  -24.8254 H   0  0  0  0  0  0  0  0  0  0  0  0
  -13.2174    1.0261  -23.9451 H   0  0  0  0  0  0  0  0  0  0  0  0
  -14.6562   -0.8553  -23.1372 H   0  0  0  0  0  0  0  0  0  0  0  0
  -11.1853   -3.1799  -22.2845 H   0  0  0  0  0  0  0  0  0  0  0  0
  1  2  1  0
  2  3  1  0
  3  4  1  0
  4  5  1  0
  5  6  2  0
  6  7  1  0
  7  8  2  0
  8  9  1  0
  9 10  2  0
 10 11  1  0
 11 12  2  0
 12 13  1  0
 13 14  2  0
  4 15  1  0
 15 16  2  0
 15 17  1  0
 17 18  1  6
 18 19  1  0
 19 20  1  0
 20 21  1  0
 21 22  3  0
 19 23  1  0
 23 24  2  0
 23 25  1  0
 25 26  2  0
 26 27  1  0
 27 28  2  0
 28 29  1  0
 28 30  1  0
 30 31  2  0
 17  2  1  0
 31 25  1  0
 14  5  1  0
 31 17  1  0
 14  9  1  0
  1 32  1  0
  1 33  1  0
  1 34  1  0
  2 35  1  1
  3 36  1  0
  3 37  1  0
  6 38  1  0
  8 39  1  0
 10 40  1  0
 11 41  1  0
 12 42  1  0
 13 43  1  0
 18 44  1  0
 18 45  1  0
 20 46  1  0
 20 47  1  0
 26 48  1  0
 27 49  1  0
 30 50  1  0
M  END
$$$$

     RDKit          3D

 44 47  0  0  0  0  0  0  0  0999 V2000
   -8.5920   -0.6836  -21.1098 O   0  0  0  0  0  0  0  0  0  0  0  0
   -7.7130   -1.1328  -21.8236 C   0  0  0  0  0  0  0  0  0  0  0  0
   -6.3538   -0.4100  -21.8408 C   0  0  0  0  0  0  0  0  0  0  0  0
   -5.5660   -0.3561  -20.5266 C   0  0  0  0  0  0  0  0  0  0  0  0
   -6.1201   -0.7241  -19.2839 C   0  0  0  0  0  0  0  0  0  0  0  0
   -5.4540   -0.6405  -18.1200 N   0  0  0  0  0  0  0  0  0  0  0  0
   -4.1970   -0.1651  -18.1333 C   0  0  0  0  0  0  0  0  0  0  0  0
   -3.5436    0.2072  -19.3111 C   0  0  0  0  0  0  0  0  0  0  0  0
   -2.2191    0.6749  -19.2949 C   0  0  0  0  0  0  0  0  0  0  0  0
   -1.5855    1.0362  -20.4914 C   0  0  0  0  0  0  0  0  0  0  0  0
   -2.2817    0.9614  -21.7035 C   0  0  0  0  0  0  0  0  0  0  0  0
   -3.6072    0.5114  -21.7120 C   0  0  0  0  0  0  0  0  0  0  0  0
   -4.2426    0.1151  -20.5292 C   0  0  0  0  0  0  0  0  0  0  0  0
   -8.0178   -2.2125  -22.6490 N   0  0  0  0  0  0  0  0  0  0  0  0
   -7.2034   -2.4622  -23.8302 C   0  0  0  0  0  0  0  0  0  0  0  0
   -7.7741   -1.5536  -24.9195 C   0  0  0  0  0  0  0  0  0  0  0  0
   -9.1994   -2.0457  -25.2127 C   0  0  0  0  0  0  0  0  0  0  0  0
   -9.7949   -1.4964  -26.5039 C   0  0  0  0  0  0  0  0  0  0  0  0
  -10.0344   -2.9300  -26.9718 C   0  0  0  0  0  0  0  0  0  0  0  0
   -9.2846   -3.4711  -25.7626 C   0  0  0  0  0  0  0  0  0  0  0  0
  -10.0726   -1.9018  -23.9503 C   0  0  0  0  0  0  0  0  0  0  0  0
   -9.4156   -2.6564  -22.7749 C   0  0  0  0  0  0  0  0  0  0  0  0
   -5.7358   -0.9009  -22.5940 H   0  0  0  0  0  0  0  0  0  0  0  0
   -6.5288    0.6212  -22.1698 H   0  0  0  0  0  0  0  0  0  0  0  0
   -7.1510   -1.0636  -19.2616 H   0  0  0  0  0  0  0  0  0  0  0  0
   -3.6718   -0.0636  -17.1882 H   0  0  0  0  0  0  0  0  0  0  0  0
   -1.6800    0.7554  -18.3551 H   0  0  0  0  0  0  0  0  0  0  0  0
   -0.5585    1.3863  -20.4820 H   0  0  0  0  0  0  0  0  0  0  0  0
   -1.8036    1.2619  -22.6339 H   0  0  0  0  0  0  0  0  0  0  0  0
   -4.1579    0.4734  -22.6451 H   0  0  0  0  0  0  0  0  0  0  0  0
   -6.1399   -2.2646  -23.6560 H   0  0  0  0  0  0  0  0  0  0  0  0
   -7.3050   -3.5137  -24.1275 H   0  0  0  0  0  0  0  0  0  0  0  0
   -7.1498   -1.5930  -25.8183 H   0  0  0  0  0  0  0  0  0  0  0  0
   -7.8130   -0.5169  -24.5544 H   0  0  0  0  0  0  0  0  0  0  0  0
  -10.6874   -0.8832  -26.3601 H   0  0  0  0  0  0  0  0  0  0  0  0
   -9.0774   -0.9594  -27.1347 H   0  0  0  0  0  0  0  0  0  0  0  0
   -9.5831   -3.1810  -27.9339 H   0  0  0  0  0  0  0  0  0  0  0  0
  -11.0935   -3.1998  -26.9831 H   0  0  0  0  0  0  0  0  0  0  0  0
   -8.3136   -3.9198  -26.0092 H   0  0  0  0  0  0  0  0  0  0  0  0
   -9.8732   -4.1672  -25.1535 H   0  0  0  0  0  0  0  0  0  0  0  0
  -11.0765   -2.3037  -24.1363 H   0  0  0  0  0  0  0  0  0  0  0  0
  -10.1634   -0.8387  -23.7008 H   0  0  0  0  0  0  0  0  0  0  0  0
   -9.4349   -3.7369  -22.9557 H   0  0  0  0  0  0  0  0  0  0  0  0
   -9.9830   -2.4808  -21.8545 H   0  0  0  0  0  0  0  0  0  0  0  0
  1  2  2  0
  2  3  1  0
  3  4  1  0
  4  5  2  0
  5  6  1  0
  6  7  2  0
  7  8  1  0
  8  9  2  0
  9 10  1  0
 10 11  2  0
 11 12  1  0
 12 13  2  0
  2 14  1  0
 14 15  1  0
 15 16  1  0
 16 17  1  0
 17 18  1  0
 18 19  1  0
 19 20  1  0
 17 21  1  0
 21 22  1  0
 13  4  1  0
 22 14  1  0
 13  8  1  0
 20 17  1  0
  3 23  1  0
  3 24  1  0
  5 25  1  0
  7 26  1  0
  9 27  1  0
 10 28  1  0
 11 29  1  0
 12 30  1  0
 15 31  1  0
 15 32  1  0
 16 33  1  0
 16 34  1  0
 18 35  1  0
 18 36  1  0
 19 37  1  0
 19 38  1  0
 20 39  1  0
 20 40  1  0
 21 41  1  0
 21 42  1  0
 22 43  1  0
 22 44  1  0
M  END
$$$$
