
     RDKit          3D

 41 44  0  0  0  0  0  0  0  0999 V2000
    7.7992    1.7712   20.3865 O   0  0  0  0  0  0  0  0  0  0  0  0
    7.7884    0.8880   21.2254 C   0  0  0  0  0  0  0  0  0  0  0  0
    6.8723   -0.3413   21.0820 C   0  0  0  0  0  0  0  0  0  0  0  0
    5.8655   -0.1864   19.9734 C   0  0  0  0  0  0  0  0  0  0  0  0
    6.0639   -0.7877   18.7570 C   0  0  0  0  0  0  0  0  0  0  0  0
    5.2654   -0.6457   17.6671 N   0  0  0  0  0  0  0  0  0  0  0  0
    4.1925    0.0931   17.8095 C   0  0  0  0  0  0  0  0  0  0  0  0
    3.8274    0.7383   19.0216 C   0  0  0  0  0  0  0  0  0  0  0  0
    2.6422    1.5051   19.1410 C   0  0  0  0  0  0  0  0  0  0  0  0
    2.3096    2.0982   20.3273 C   0  0  0  0  0  0  0  0  0  0  0  0
    3.1859    2.0028   21.4298 C   0  0  0  0  0  0  0  0  0  0  0  0
    4.3566    1.2909   21.3288 C   0  0  0  0  0  0  0  0  0  0  0  0
    4.6946    0.6143   20.1291 C   0  0  0  0  0  0  0  0  0  0  0  0
    8.6343    0.9209   22.2962 N   0  0  0  0  0  0  0  0  0  0  0  0
    8.4508    0.0537   23.4543 C   0  0  0  0  0  0  0  0  0  0  0  0
    9.3361    0.5013   24.6081 C   0  0  0  0  0  0  0  0  0  0  0  0
   10.7419    0.7346   24.1248 C   0  0  0  0  0  0  0  0  0  0  0  0
   11.8621    0.2105   24.7626 C   0  0  0  0  0  0  0  0  0  0  0  0
   11.7005   -0.8756   26.1222 Cl  0  0  0  0  0  0  0  0  0  0  0  0
   13.1470    0.5002   24.3307 C   0  0  0  0  0  0  0  0  0  0  0  0
   13.3174    1.3472   23.2391 C   0  0  0  0  0  0  0  0  0  0  0  0
   12.2077    1.8262   22.5435 C   0  0  0  0  0  0  0  0  0  0  0  0
   10.9210    1.5066   22.9730 C   0  0  0  0  0  0  0  0  0  0  0  0
    9.6641    1.9706   22.2749 C   0  0  0  0  0  0  0  0  0  0  0  0
    6.3933   -0.5780   22.0404 H   0  0  0  0  0  0  0  0  0  0  0  0
    7.5212   -1.1991   20.8550 H   0  0  0  0  0  0  0  0  0  0  0  0
    6.9144   -1.4499   18.5922 H   0  0  0  0  0  0  0  0  0  0  0  0
    3.5341    0.1808   16.9452 H   0  0  0  0  0  0  0  0  0  0  0  0
    2.0212    1.6242   18.2623 H   0  0  0  0  0  0  0  0  0  0  0  0
    1.3854    2.6628   20.4202 H   0  0  0  0  0  0  0  0  0  0  0  0
    2.9387    2.5059   22.3587 H   0  0  0  0  0  0  0  0  0  0  0  0
    5.0439    1.2420   22.1655 H   0  0  0  0  0  0  0  0  0  0  0  0
    8.6883   -0.9890   23.1861 H   0  0  0  0  0  0  0  0  0  0  0  0
    7.4052    0.0927   23.7930 H   0  0  0  0  0  0  0  0  0  0  0  0
    8.9142    1.4183   25.0524 H   0  0  0  0  0  0  0  0  0  0  0  0
    9.3335   -0.2723   25.3760 H   0  0  0  0  0  0  0  0  0  0  0  0
   13.9653    0.0193   24.8609 H   0  0  0  0  0  0  0  0  0  0  0  0
   14.3122    1.6379   22.9068 H   0  0  0  0  0  0  0  0  0  0  0  0
   12.3391    2.4248   21.6419 H   0  0  0  0  0  0  0  0  0  0  0  0
    9.2800    2.8874   22.7571 H   0  0  0  0  0  0  0  0  0  0  0  0
    9.8424    2.2079   21.2240 H   0  0  0  0  0  0  0  0  0  0  0  0
  1  2  2  0
  2  3  1  0
  3  4  1  0
  4  5  2  0
  5  6  1  0
  6  7  2  0
  7  8  1  0
  8  9  2  0
  9 10  1  0
 10 11  2  0
 11 12  1  0
 12 13  2  0
  2 14  1  0
 14 15  1  0
 15 16  1  0
 16 17  1  0
 17 18  2  0
 18 19  1  0
 18 20  1  0
 20 21  2  0
 21 22  1  0
 22 23  2  0
 23 24  1  0
 13  4  1  0
 24 14  1  0
 13  8  1  0
 23 17  1  0
  3 25  1  0
  3 26  1  0
  5 27  1  0
  7 28  1  0
  9 29  1  0
 10 30  1  0
 11 31  1  0
 12 32  1  0
 15 33  1  0
 15 34  1  0
 16 35  1  0
 16 36  1  0
 20 37  1  0
 21 38  1  0
 22 39  1  0
 24 40  1  0
 24 41  1  0
M  END
$$$$
