
     RDKit          3D

 49 50  0  0  0  0  0  0  0  0999 V2000
    9.0528   -3.3689   17.1273 C   0  0  0  0  0  0  0  0  0  0  0  0
    7.6998   -3.0779   17.6368 N   0  0  0  0  0  0  0  0  0  0  0  0
    7.2019   -1.6370   18.2105 S   0  0  0  0  0  0  0  0  0  0  0  0
    8.3189   -0.7202   18.2798 O   0  0  0  0  0  0  0  0  0  0  0  0
    5.9657   -1.2311   17.5792 O   0  0  0  0  0  0  0  0  0  0  0  0
    6.8250   -2.0527   19.7410 O   0  0  0  0  0  0  0  0  0  0  0  0
    6.2472   -0.9451   20.4632 C   0  0  0  0  0  0  0  0  0  0  0  0
    7.0417   -0.6537   21.7243 C   0  0  0  0  0  0  0  0  0  0  0  0
    6.4954   -0.1697   22.7040 O   0  0  0  0  0  0  0  0  0  0  0  0
    8.3748   -0.9159   21.6692 N   0  0  0  0  0  0  0  0  0  0  0  0
    9.1237   -0.8010   22.9174 C   0  0  1  0  0  0  0  0  0  0  0  0
    9.0343   -2.0531   23.7893 C   0  0  0  0  0  0  0  0  0  0  0  0
   10.5391   -0.2978   22.7215 C   0  0  0  0  0  0  0  0  0  0  0  0
   11.6652   -1.1179   22.6882 C   0  0  0  0  0  0  0  0  0  0  0  0
   12.9281   -0.5349   22.5944 C   0  0  0  0  0  0  0  0  0  0  0  0
   14.3253   -1.5683   22.5066 Cl  0  0  0  0  0  0  0  0  0  0  0  0
   13.1090    0.8414   22.6270 C   0  0  0  0  0  0  0  0  0  0  0  0
   11.9877    1.6689   22.7488 C   0  0  0  0  0  0  0  0  0  0  0  0
   12.0979    3.1195   23.0844 C   0  0  0  0  0  0  0  0  0  0  0  0
   13.0000    4.0082   22.4827 C   0  0  0  0  0  0  0  0  0  0  0  0
   13.1398    5.3109   22.9672 C   0  0  0  0  0  0  0  0  0  0  0  0
   12.3956    5.7093   24.0807 C   0  0  0  0  0  0  0  0  0  0  0  0
   12.7329    7.2425   24.9101 S   0  0  0  0  0  0  0  0  0  0  0  0
   11.2013    7.6553   25.4449 N   0  0  0  0  0  0  0  0  0  0  0  0
   13.2233    8.1843   23.9198 O   0  0  0  0  0  0  0  0  0  0  0  0
   13.4912    7.0271   26.1317 O   0  0  0  0  0  0  0  0  0  0  0  0
   11.4333    4.8688   24.6355 C   0  0  0  0  0  0  0  0  0  0  0  0
   11.2944    3.5920   24.1318 C   0  0  0  0  0  0  0  0  0  0  0  0
   10.7213    1.0830   22.7322 C   0  0  0  0  0  0  0  0  0  0  0  0
    8.9992   -4.0185   16.2466 H   0  0  0  0  0  0  0  0  0  0  0  0
    9.5405   -2.4197   16.9174 H   0  0  0  0  0  0  0  0  0  0  0  0
    9.6649   -3.9332   17.8314 H   0  0  0  0  0  0  0  0  0  0  0  0
    7.1497   -3.8348   18.0161 H   0  0  0  0  0  0  0  0  0  0  0  0
    5.2293   -1.2144   20.7475 H   0  0  0  0  0  0  0  0  0  0  0  0
    6.2102   -0.0480   19.8349 H   0  0  0  0  0  0  0  0  0  0  0  0
    8.7741   -1.3992   20.8723 H   0  0  0  0  0  0  0  0  0  0  0  0
    8.5972   -0.0115   23.4642 H   0  0  0  0  0  0  0  0  0  0  0  0
    7.9798   -2.2554   24.0073 H   0  0  0  0  0  0  0  0  0  0  0  0
    9.5504   -1.8595   24.7380 H   0  0  0  0  0  0  0  0  0  0  0  0
    9.4723   -2.9398   23.3140 H   0  0  0  0  0  0  0  0  0  0  0  0
   11.5784   -2.1995   22.7367 H   0  0  0  0  0  0  0  0  0  0  0  0
   14.1140    1.2595   22.5988 H   0  0  0  0  0  0  0  0  0  0  0  0
   13.5812    3.6789   21.6221 H   0  0  0  0  0  0  0  0  0  0  0  0
   13.8217    6.0142   22.4926 H   0  0  0  0  0  0  0  0  0  0  0  0
   11.2448    7.9099   26.4236 H   0  0  0  0  0  0  0  0  0  0  0  0
   10.7744    8.3893   24.8953 H   0  0  0  0  0  0  0  0  0  0  0  0
   10.7817    5.2245   25.4303 H   0  0  0  0  0  0  0  0  0  0  0  0
   10.5603    2.9289   24.5815 H   0  0  0  0  0  0  0  0  0  0  0  0
    9.8467    1.7315   22.7523 H   0  0  0  0  0  0  0  0  0  0  0  0
  1  2  1  0
  2  3  1  0
  3  4  2  0
  3  5  2  0
  3  6  1  0
  6  7  1  0
  7  8  1  0
  8  9  2  0
  8 10  1  0
 10 11  1  0
 11 12  1  0
 11 13  1  0
 13 14  2  0
 14 15  1  0
 15 16  1  0
 15 17  2  0
 17 18  1  0
 18 19  1  0
 19 20  2  0
 20 21  1  0
 21 22  2  0
 22 23  1  0
 23 24  1  0
 23 25  2  0
 23 26  2  0
 22 27  1  0
 27 28  2  0
 18 29  2  0
 29 13  1  0
 28 19  1  0
  1 30  1  0
  1 31  1  0
  1 32  1  0
  2 33  1  0
  7 34  1  0
  7 35  1  0
 10 36  1  0
 11 37  1  1
 12 38  1  0
 12 39  1  0
 12 40  1  0
 14 41  1  0
 17 42  1  0
 20 43  1  0
 21 44  1  0
 24 45  1  0
 24 46  1  0
 27 47  1  0
 28 48  1  0
 29 49  1  0
M  END
$$$$
