
     RDKit          3D

 50 54  0  0  0  0  0  0  0  0999 V2000
   -8.6389   -3.6566  -23.8197 C   0  0  0  0  0  0  0  0  0  0  0  0
   -8.7240   -2.7167  -22.6146 C   0  0  1  0  0  0  0  0  0  0  0  0
   -7.3640   -2.4614  -21.9443 C   0  0  0  0  0  0  0  0  0  0  0  0
   -7.5894   -1.2115  -21.2391 N   0  0  0  0  0  0  0  0  0  0  0  0
   -6.7531   -0.7719  -20.1816 C   0  0  0  0  0  0  0  0  0  0  0  0
   -7.0201   -1.1537  -18.8476 C   0  0  0  0  0  0  0  0  0  0  0  0
   -6.2470   -0.8209  -17.7952 N   0  0  0  0  0  0  0  0  0  0  0  0
   -5.1584   -0.0687  -18.0278 C   0  0  0  0  0  0  0  0  0  0  0  0
   -4.8112    0.3854  -19.3062 C   0  0  0  0  0  0  0  0  0  0  0  0
   -3.6971    1.2180  -19.4893 C   0  0  0  0  0  0  0  0  0  0  0  0
   -3.3417    1.6415  -20.7716 C   0  0  0  0  0  0  0  0  0  0  0  0
   -4.0871    1.2260  -21.8792 C   0  0  0  0  0  0  0  0  0  0  0  0
   -5.2186    0.4206  -21.6969 C   0  0  0  0  0  0  0  0  0  0  0  0
   -5.6038    0.0084  -20.4111 C   0  0  0  0  0  0  0  0  0  0  0  0
   -8.6367   -0.5159  -21.8263 C   0  0  0  0  0  0  0  0  0  0  0  0
   -9.0101    0.5981  -21.4930 O   0  0  0  0  0  0  0  0  0  0  0  0
   -9.2552   -1.3056  -22.9751 C   0  0  1  0  0  0  0  0  0  0  0  0
   -8.6411   -0.5599  -24.1810 C   0  0  0  0  0  0  0  0  0  0  0  0
   -9.0876    0.8328  -24.1456 N   0  0  0  0  0  0  0  0  0  0  0  0
   -8.1360    1.9348  -24.3731 C   0  0  0  0  0  0  0  0  0  0  0  0
   -7.7670    2.6248  -23.1260 C   0  0  0  0  0  0  0  0  0  0  0  0
   -7.4167    3.1914  -22.1735 N   0  0  0  0  0  0  0  0  0  0  0  0
  -10.4563    1.0614  -24.0007 C   0  0  0  0  0  0  0  0  0  0  0  0
  -10.9055    2.1534  -24.3236 O   0  0  0  0  0  0  0  0  0  0  0  0
  -11.3562   -0.0147  -23.5323 C   0  0  0  0  0  0  0  0  0  0  0  0
  -12.7608    0.1121  -23.5664 C   0  0  0  0  0  0  0  0  0  0  0  0
  -13.5737   -0.9335  -23.1125 C   0  0  0  0  0  0  0  0  0  0  0  0
  -13.0025   -2.1087  -22.6267 C   0  0  0  0  0  0  0  0  0  0  0  0
  -13.7931   -3.0883  -22.1269 F   0  0  0  0  0  0  0  0  0  0  0  0
  -11.6109   -2.2511  -22.6473 C   0  0  0  0  0  0  0  0  0  0  0  0
  -10.7750   -1.2038  -23.0608 C   0  0  0  0  0  0  0  0  0  0  0  0
   -9.6298   -3.7616  -24.2764 H   0  0  0  0  0  0  0  0  0  0  0  0
   -7.9410   -3.2704  -24.5727 H   0  0  0  0  0  0  0  0  0  0  0  0
   -8.3020   -4.6495  -23.4959 H   0  0  0  0  0  0  0  0  0  0  0  0
   -9.3836   -3.1758  -21.8633 H   0  0  0  0  0  0  0  0  0  0  0  0
   -7.0928   -3.2754  -21.2614 H   0  0  0  0  0  0  0  0  0  0  0  0
   -6.5695   -2.3437  -22.6915 H   0  0  0  0  0  0  0  0  0  0  0  0
   -7.9046   -1.7542  -18.6621 H   0  0  0  0  0  0  0  0  0  0  0  0
   -4.5311    0.2118  -17.1878 H   0  0  0  0  0  0  0  0  0  0  0  0
   -3.1160    1.5529  -18.6343 H   0  0  0  0  0  0  0  0  0  0  0  0
   -2.4856    2.2958  -20.9040 H   0  0  0  0  0  0  0  0  0  0  0  0
   -3.7904    1.5349  -22.8778 H   0  0  0  0  0  0  0  0  0  0  0  0
   -5.8060    0.1155  -22.5569 H   0  0  0  0  0  0  0  0  0  0  0  0
   -8.9845   -1.0246  -25.1167 H   0  0  0  0  0  0  0  0  0  0  0  0
   -7.5420   -0.6116  -24.1449 H   0  0  0  0  0  0  0  0  0  0  0  0
   -7.2225    1.5388  -24.8254 H   0  0  0  0  0  0  0  0  0  0  0  0
   -8.5392    2.6829  -25.0641 H   0  0  0  0  0  0  0  0  0  0  0  0
  -13.2174    1.0261  -23.9451 H   0  0  0  0  0  0  0  0  0  0  0  0
  -14.6562   -0.8553  -23.1372 H   0  0  0  0  0  0  0  0  0  0  0  0
  -11.1853   -3.1799  -22.2845 H   0  0  0  0  0  0  0  0  0  0  0  0
  1  2  1  0
  2  3  1  0
  3  4  1  0
  4  5  1  0
  5  6  2  0
  6  7  1  0
  7  8  2  0
  8  9  1  0
  9 10  2  0
 10 11  1  0
 11 12  2  0
 12 13  1  0
 13 14  2  0
  4 15  1  0
 15 16  2  0
 15 17  1  0
 17 18  1  6
 18 19  1  0
 19 20  1  0
 20 21  1  0
 21 22  3  0
 19 23  1  0
 23 24  2  0
 23 25  1  0
 25 26  2  0
 26 27  1  0
 27 28  2  0
 28 29  1  0
 28 30  1  0
 30 31  2  0
 17  2  1  0
 31 25  1  0
 14  5  1  0
 31 17  1  0
 14  9  1  0
  1 32  1  0
  1 33  1  0
  1 34  1  0
  2 35  1  1
  3 36  1  0
  3 37  1  0
  6 38  1  0
  8 39  1  0
 10 40  1  0
 11 41  1  0
 12 42  1  0
 13 43  1  0
 18 44  1  0
 18 45  1  0
 20 46  1  0
 20 47  1  0
 26 48  1  0
 27 49  1  0
 30 50  1  0
M  END
