LIG(A-307)
     RDKit          3D

 36 41  0  0  1  0  0  0  0  0999 V2000
    9.0094    7.1111   22.5609 N   0  0  0  0  0  0  0  0  0  0  0  0
    8.3259    6.2064   22.6647 C   0  0  0  0  0  0  0  0  0  0  0  0
    7.4574    5.0229   22.7346 C   0  0  0  0  0  0  0  0  0  0  0  0
    6.1137    5.1881   23.4158 C   0  0  0  0  0  0  0  0  0  0  0  0
    6.1738    5.1173   21.9354 C   0  0  0  0  0  0  0  0  0  0  0  0
    8.2225    3.7070   22.8533 C   0  0  0  0  0  0  0  0  0  0  0  0
    8.5164    2.9705   24.4510 S   0  0  0  0  0  0  0  0  0  0  0  0
    7.2878    2.4082   24.9155 O   0  0  0  0  0  0  0  0  0  0  0  0
    9.1978    3.9236   25.2676 O   0  0  0  0  0  0  0  0  0  0  0  0
    9.5441    1.7309   24.1943 N   0  0  0  0  0  0  0  0  0  0  0  0
    9.0791    0.3401   24.0872 C   0  0  0  0  0  0  0  0  0  0  0  0
   10.9763    1.8389   24.5067 C   0  0  0  0  0  0  0  0  0  0  0  0
   11.8032    0.9663   23.5825 C   0  0  0  0  0  0  0  0  0  0  0  0
   11.2306   -0.0757   22.8277 C   0  0  0  0  0  0  0  0  0  0  0  0
   12.0466   -0.8739   22.0284 C   0  0  0  0  0  0  0  0  0  0  0  0
   13.3965   -0.6005   21.9437 C   0  0  0  0  0  0  0  0  0  0  0  0
   14.3800   -1.5420   20.8537 Cl  0  0  0  0  0  0  0  0  0  0  0  0
   13.9740    0.4192   22.6658 C   0  0  0  0  0  0  0  0  0  0  0  0
   13.1764    1.1927   23.4894 C   0  0  0  0  0  0  0  0  0  0  0  0
    9.7300   -0.2865   22.8302 C   0  0  1  0  0  0  0  0  0  0  0  0
    9.2478   -1.7361   22.5300 C   0  0  1  0  0  0  0  0  0  0  0  0
    9.2478   -2.6960   23.7154 C   0  0  0  0  0  0  0  0  0  0  0  0
    9.1283    0.4426   21.6162 C   0  0  0  0  0  0  0  0  0  0  0  0
    9.5424    1.4687   21.1178 O   0  0  0  0  0  0  0  0  0  0  0  0
    8.0304   -0.2554   21.2039 N   0  0  0  0  0  0  0  0  0  0  0  0
    7.8591   -1.5136   21.9375 C   0  0  0  0  0  0  0  0  0  0  0  0
    7.1343    0.1404   20.1533 C   0  0  0  0  0  0  0  0  0  0  0  0
    5.9560    0.9131   20.4076 C   0  0  0  0  0  0  0  0  0  0  0  0
    5.5247    1.3086   21.7021 C   0  0  0  0  0  0  0  0  0  0  0  0
    4.4007    2.0667   21.8714 C   0  0  0  0  0  0  0  0  0  0  0  0
    3.6546    2.4812   20.7737 C   0  0  0  0  0  0  0  0  0  0  0  0
    4.0259    2.1292   19.5070 C   0  0  0  0  0  0  0  0  0  0  0  0
    5.1805    1.3338   19.2881 C   0  0  0  0  0  0  0  0  0  0  0  0
    5.6195    0.9447   17.9935 C   0  0  0  0  0  0  0  0  0  0  0  0
    6.7122    0.2253   17.7618 N   0  0  0  0  0  0  0  0  0  0  0  0
    7.4345   -0.1568   18.8260 C   0  0  0  0  0  0  0  0  0  0  0  0
  1  2  3  0
  3  2  1  0
  3  4  1  0
  3  5  1  0
  3  6  1  0
  4  5  1  0
  6  7  1  0
  7  8  2  0
  7  9  2  0
  7 10  1  0
 10 11  1  0
 10 12  1  0
 20 11  1  1
 12 13  1  0
 13 14  2  0
 13 19  1  0
 14 15  1  0
 14 20  1  0
 15 16  2  0
 16 17  1  0
 16 18  1  0
 18 19  2  0
 20 21  1  0
 20 23  1  0
 21 22  1  1
 21 26  1  0
 23 24  2  0
 23 25  1  0
 25 26  1  0
 25 27  1  0
 27 28  1  0
 27 36  2  0
 28 29  2  0
 28 33  1  0
 29 30  1  0
 30 31  2  0
 31 32  1  0
 32 33  2  0
 33 34  1  0
 34 35  2  0
 35 36  1  0
M  END
$$$$
