
     RDKit          3D

 76 82  0  0  0  0  0  0  0  0999 V2000
   10.8768    3.2130   24.0615 O   0  0  0  0  0  0  0  0  0  0  0  0
   10.5552    2.0207   24.0038 C   0  0  0  0  0  0  0  0  0  0  0  0
   11.4902    1.0030   23.4318 C   0  0  0  0  0  0  0  0  0  0  0  0
   12.8515    1.2931   23.3947 C   0  0  0  0  0  0  0  0  0  0  0  0
   13.7413    0.3690   22.8854 C   0  0  0  0  0  0  0  0  0  0  0  0
   13.2494   -0.8515   22.4241 C   0  0  0  0  0  0  0  0  0  0  0  0
   14.3528   -1.9870   21.6987 Cl  0  0  0  0  0  0  0  0  0  0  0  0
   11.9032   -1.1684   22.4870 C   0  0  0  0  0  0  0  0  0  0  0  0
   10.9882   -0.2045   22.9343 C   0  0  0  0  0  0  0  0  0  0  0  0
    9.4802   -0.3585   22.8646 C   0  0  1  0  0  0  0  0  0  0  0  0
    8.9239    0.1871   24.2136 C   0  0  0  0  0  0  0  0  0  0  0  0
    9.3554    1.5631   24.4414 N   0  0  0  0  0  0  0  0  0  0  0  0
    8.5210    2.4353   25.2584 C   0  0  0  0  0  0  0  0  0  0  0  0
    7.7719    3.5193   24.4785 C   0  0  0  0  0  0  0  0  0  0  0  0
    8.6445    4.6723   24.0700 N   0  0  0  0  0  0  0  0  0  0  0  0
    9.2968    5.4708   25.1721 C   0  0  0  0  0  0  0  0  0  0  0  0
    8.3263    6.3984   25.8790 C   0  0  0  0  0  0  0  0  0  0  0  0
    7.7175    7.2850   24.9606 O   0  0  0  0  0  0  0  0  0  0  0  0
    7.0191    6.5686   23.9584 C   0  0  0  0  0  0  0  0  0  0  0  0
    7.9417    5.6397   23.1682 C   0  0  0  0  0  0  0  0  0  0  0  0
    8.8285    0.4733   21.7228 C   0  0  0  0  0  0  0  0  0  0  0  0
    9.0616    1.6219   21.4222 O   0  0  0  0  0  0  0  0  0  0  0  0
    7.8642   -0.3099   21.1193 N   0  0  0  0  0  0  0  0  0  0  0  0
    6.9966    0.1683   20.1015 C   0  0  0  0  0  0  0  0  0  0  0  0
    7.1941   -0.2182   18.7970 C   0  0  0  0  0  0  0  0  0  0  0  0
    6.3813    0.1140   17.7648 N   0  0  0  0  0  0  0  0  0  0  0  0
    5.3381    0.8602   18.0296 C   0  0  0  0  0  0  0  0  0  0  0  0
    5.0302    1.3549   19.3283 C   0  0  0  0  0  0  0  0  0  0  0  0
    3.9263    2.2211   19.5443 C   0  0  0  0  0  0  0  0  0  0  0  0
    3.6296    2.6580   20.8045 C   0  0  0  0  0  0  0  0  0  0  0  0
    4.4096    2.2445   21.9066 C   0  0  0  0  0  0  0  0  0  0  0  0
    5.5048    1.4336   21.7177 C   0  0  0  0  0  0  0  0  0  0  0  0
    5.8568    0.9809   20.4122 C   0  0  0  0  0  0  0  0  0  0  0  0
    7.6386   -1.5686   21.8046 C   0  0  0  0  0  0  0  0  0  0  0  0
    8.9891   -1.7791   22.4962 C   0  0  2  0  0  0  0  0  0  0  0  0
    8.9976   -2.7965   23.6443 C   0  0  0  0  0  0  0  0  0  0  0  0
    8.7647   -4.1584   23.2110 N   0  0  0  0  0  0  0  0  0  0  0  0
    7.5152   -4.6907   23.1787 C   0  0  0  0  0  0  0  0  0  0  0  0
    6.5269   -3.9993   23.7792 N   0  0  0  0  0  0  0  0  0  0  0  0
    5.3116   -4.5407   23.7297 C   0  0  0  0  0  0  0  0  0  0  0  0
    5.0460   -5.7373   23.0797 C   0  0  0  0  0  0  0  0  0  0  0  0
    6.1496   -6.3662   22.5019 C   0  0  0  0  0  0  0  0  0  0  0  0
    7.3798   -5.8802   22.5572 N   0  0  0  0  0  0  0  0  0  0  0  0
   13.1893    2.2506   23.7748 H   0  0  0  0  0  0  0  0  0  0  0  0
   14.8023    0.5849   22.8280 H   0  0  0  0  0  0  0  0  0  0  0  0
   11.5902   -2.1550   22.1623 H   0  0  0  0  0  0  0  0  0  0  0  0
    7.8272    0.1795   24.2116 H   0  0  0  0  0  0  0  0  0  0  0  0
    9.2680   -0.4462   25.0422 H   0  0  0  0  0  0  0  0  0  0  0  0
    7.7899    1.8020   25.7683 H   0  0  0  0  0  0  0  0  0  0  0  0
    9.1367    2.8935   26.0390 H   0  0  0  0  0  0  0  0  0  0  0  0
    7.3595    3.0785   23.5586 H   0  0  0  0  0  0  0  0  0  0  0  0
    6.9246    3.8703   25.0779 H   0  0  0  0  0  0  0  0  0  0  0  0
    9.4464    4.2502   23.5730 H   0  0  0  0  0  0  0  0  0  0  0  0
    9.7886    4.8004   25.8764 H   0  0  0  0  0  0  0  0  0  0  0  0
   10.0796    6.0681   24.6978 H   0  0  0  0  0  0  0  0  0  0  0  0
    7.5678    5.8154   26.4254 H   0  0  0  0  0  0  0  0  0  0  0  0
    8.8717    7.0124   26.6029 H   0  0  0  0  0  0  0  0  0  0  0  0
    6.5742    7.3114   23.2906 H   0  0  0  0  0  0  0  0  0  0  0  0
    6.2021    5.9848   24.4114 H   0  0  0  0  0  0  0  0  0  0  0  0
    8.6998    6.2290   22.6477 H   0  0  0  0  0  0  0  0  0  0  0  0
    7.3718    5.0815   22.4187 H   0  0  0  0  0  0  0  0  0  0  0  0
    8.0507   -0.8399   18.5423 H   0  0  0  0  0  0  0  0  0  0  0  0
    4.6807    1.1254   17.2009 H   0  0  0  0  0  0  0  0  0  0  0  0
    3.3427    2.5368   18.6834 H   0  0  0  0  0  0  0  0  0  0  0  0
    2.7914    3.3290   20.9658 H   0  0  0  0  0  0  0  0  0  0  0  0
    4.1449    2.5753   22.9069 H   0  0  0  0  0  0  0  0  0  0  0  0
    6.1129    1.1498   22.5727 H   0  0  0  0  0  0  0  0  0  0  0  0
    6.8055   -1.5159   22.5268 H   0  0  0  0  0  0  0  0  0  0  0  0
    7.4016   -2.3484   21.0793 H   0  0  0  0  0  0  0  0  0  0  0  0
    9.6443   -2.1281   21.6859 H   0  0  0  0  0  0  0  0  0  0  0  0
    9.9518   -2.7253   24.1877 H   0  0  0  0  0  0  0  0  0  0  0  0
    8.1948   -2.5509   24.3493 H   0  0  0  0  0  0  0  0  0  0  0  0
    9.4651   -4.6656   22.6782 H   0  0  0  0  0  0  0  0  0  0  0  0
    4.5349   -3.9651   24.2395 H   0  0  0  0  0  0  0  0  0  0  0  0
    4.0420   -6.1467   23.0331 H   0  0  0  0  0  0  0  0  0  0  0  0
    6.0408   -7.3149   21.9748 H   0  0  0  0  0  0  0  0  0  0  0  0
  1  2  2  0
  2  3  1  0
  3  4  2  0
  4  5  1  0
  5  6  2  0
  6  7  1  0
  6  8  1  0
  8  9  2  0
  9 10  1  0
 10 11  1  1
 11 12  1  0
 12 13  1  0
 13 14  1  0
 14 15  1  0
 15 16  1  0
 16 17  1  0
 17 18  1  0
 18 19  1  0
 19 20  1  0
 10 21  1  0
 21 22  2  0
 21 23  1  0
 23 24  1  0
 24 25  2  0
 25 26  1  0
 26 27  2  0
 27 28  1  0
 28 29  2  0
 29 30  1  0
 30 31  2  0
 31 32  1  0
 32 33  2  0
 23 34  1  0
 34 35  1  0
 35 36  1  0
 36 37  1  0
 37 38  1  0
 38 39  2  0
 39 40  1  0
 40 41  2  0
 41 42  1  0
 42 43  2  0
 12  2  1  0
 20 15  1  0
 33 24  1  0
 43 38  1  0
  9  3  1  0
 35 10  1  0
 33 28  1  0
  4 44  1  0
  5 45  1  0
  8 46  1  0
 11 47  1  0
 11 48  1  0
 13 49  1  0
 13 50  1  0
 14 51  1  0
 14 52  1  0
 15 53  1  0
 16 54  1  0
 16 55  1  0
 17 56  1  0
 17 57  1  0
 19 58  1  0
 19 59  1  0
 20 60  1  0
 20 61  1  0
 25 62  1  0
 27 63  1  0
 29 64  1  0
 30 65  1  0
 31 66  1  0
 32 67  1  0
 34 68  1  0
 34 69  1  0
 35 70  1  6
 36 71  1  0
 36 72  1  0
 37 73  1  0
 40 74  1  0
 41 75  1  0
 42 76  1  0
M  CHG  1  15   1
M  END
$$$$
