
     RDKit          3D

 73 78  0  0  0  0  0  0  0  0999 V2000
   -8.4261   -3.8473  -23.7001 C   0  0  0  0  0  0  0  0  0  0  0  0
   -8.5299   -2.8519  -22.5520 C   0  0  1  0  0  0  0  0  0  0  0  0
   -7.2144   -2.5859  -21.8123 C   0  0  0  0  0  0  0  0  0  0  0  0
   -7.4910   -1.3300  -21.1451 N   0  0  0  0  0  0  0  0  0  0  0  0
   -6.6509   -0.8100  -20.1238 C   0  0  0  0  0  0  0  0  0  0  0  0
   -6.8650   -1.1787  -18.8170 C   0  0  0  0  0  0  0  0  0  0  0  0
   -6.0843   -0.8053  -17.7732 N   0  0  0  0  0  0  0  0  0  0  0  0
   -5.0597   -0.0322  -18.0289 C   0  0  0  0  0  0  0  0  0  0  0  0
   -4.7367    0.4470  -19.3294 C   0  0  0  0  0  0  0  0  0  0  0  0
   -3.6539    1.3409  -19.5373 C   0  0  0  0  0  0  0  0  0  0  0  0
   -3.3367    1.7622  -20.7968 C   0  0  0  0  0  0  0  0  0  0  0  0
   -4.0782    1.3050  -21.9082 C   0  0  0  0  0  0  0  0  0  0  0  0
   -5.1553    0.4666  -21.7297 C   0  0  0  0  0  0  0  0  0  0  0  0
   -5.5268    0.0279  -20.4251 C   0  0  0  0  0  0  0  0  0  0  0  0
   -8.4595   -0.5826  -21.7871 C   0  0  0  0  0  0  0  0  0  0  0  0
   -8.7397    0.5582  -21.5026 O   0  0  0  0  0  0  0  0  0  0  0  0
   -9.0680   -1.4491  -22.9280 C   0  0  1  0  0  0  0  0  0  0  0  0
   -8.5104   -0.9436  -24.2820 C   0  0  0  0  0  0  0  0  0  0  0  0
   -9.0033    0.3837  -24.6185 N   0  0  0  0  0  0  0  0  0  0  0  0
   -8.1619    1.1828  -25.4952 C   0  0  0  0  0  0  0  0  0  0  0  0
   -7.4438    2.2910  -24.7438 C   0  0  0  0  0  0  0  0  0  0  0  0
   -8.3117    3.4684  -24.4479 N   0  0  0  0  0  0  0  0  0  0  0  0
   -8.8388    4.2014  -25.6522 C   0  0  0  0  0  0  0  0  0  0  0  0
   -9.5405    5.4848  -25.2034 C   0  0  0  0  0  0  0  0  0  0  0  0
   -8.6644    6.3449  -24.4160 N   0  0  0  0  0  0  0  0  0  0  0  0
   -8.0363    7.7262  -25.0711 S   0  0  0  0  0  0  0  0  0  0  0  0
   -6.9982    7.1248  -26.3961 C   0  0  0  0  0  0  0  0  0  0  0  0
   -9.1495    8.4537  -25.6592 O   0  0  0  0  0  0  0  0  0  0  0  0
   -7.1806    8.3480  -24.0750 O   0  0  0  0  0  0  0  0  0  0  0  0
   -8.0863    5.7143  -23.2411 C   0  0  0  0  0  0  0  0  0  0  0  0
   -7.5002    4.3468  -23.5573 C   0  0  0  0  0  0  0  0  0  0  0  0
  -10.1941    0.8568  -24.1740 C   0  0  0  0  0  0  0  0  0  0  0  0
  -10.5347    2.0445  -24.2535 O   0  0  0  0  0  0  0  0  0  0  0  0
  -11.1090   -0.1536  -23.5717 C   0  0  0  0  0  0  0  0  0  0  0  0
  -12.4770    0.1086  -23.5668 C   0  0  0  0  0  0  0  0  0  0  0  0
  -13.3544   -0.8280  -23.0591 C   0  0  0  0  0  0  0  0  0  0  0  0
  -12.8343   -2.0242  -22.5652 C   0  0  0  0  0  0  0  0  0  0  0  0
  -13.9151   -3.1823  -21.8420 Cl  0  0  0  0  0  0  0  0  0  0  0  0
  -11.4791   -2.3053  -22.5878 C   0  0  0  0  0  0  0  0  0  0  0  0
  -10.5791   -1.3311  -23.0323 C   0  0  0  0  0  0  0  0  0  0  0  0
   -9.3869   -3.9347  -24.2215 H   0  0  0  0  0  0  0  0  0  0  0  0
   -8.1370   -4.8393  -23.3380 H   0  0  0  0  0  0  0  0  0  0  0  0
   -7.6746   -3.5218  -24.4308 H   0  0  0  0  0  0  0  0  0  0  0  0
   -9.2057   -3.2464  -21.7849 H   0  0  0  0  0  0  0  0  0  0  0  0
   -6.3653   -2.5034  -22.5136 H   0  0  0  0  0  0  0  0  0  0  0  0
   -6.9754   -3.3620  -21.0803 H   0  0  0  0  0  0  0  0  0  0  0  0
   -7.7156   -1.8104  -18.5681 H   0  0  0  0  0  0  0  0  0  0  0  0
   -4.4311    0.2705  -17.1900 H   0  0  0  0  0  0  0  0  0  0  0  0
   -3.1024    1.6900  -18.6687 H   0  0  0  0  0  0  0  0  0  0  0  0
   -2.5157    2.4564  -20.9511 H   0  0  0  0  0  0  0  0  0  0  0  0
   -3.7967    1.6225  -22.9071 H   0  0  0  0  0  0  0  0  0  0  0  0
   -5.7332    0.1512  -22.5944 H   0  0  0  0  0  0  0  0  0  0  0  0
   -7.4147   -0.8995  -24.2431 H   0  0  0  0  0  0  0  0  0  0  0  0
   -8.7973   -1.6398  -25.0789 H   0  0  0  0  0  0  0  0  0  0  0  0
   -8.7404    1.5876  -26.3303 H   0  0  0  0  0  0  0  0  0  0  0  0
   -7.4156    0.5098  -25.9244 H   0  0  0  0  0  0  0  0  0  0  0  0
   -6.5506    2.6212  -25.2959 H   0  0  0  0  0  0  0  0  0  0  0  0
   -7.1093    1.8846  -23.7763 H   0  0  0  0  0  0  0  0  0  0  0  0
   -9.1627    3.0898  -23.9790 H   0  0  0  0  0  0  0  0  0  0  0  0
   -8.0176    4.4165  -26.3477 H   0  0  0  0  0  0  0  0  0  0  0  0
   -9.5806    3.5678  -26.1496 H   0  0  0  0  0  0  0  0  0  0  0  0
   -9.9486    6.0483  -26.0437 H   0  0  0  0  0  0  0  0  0  0  0  0
  -10.3855    5.1976  -24.5614 H   0  0  0  0  0  0  0  0  0  0  0  0
   -6.4308    7.9780  -26.7789 H   0  0  0  0  0  0  0  0  0  0  0  0
   -6.3128    6.3720  -25.9928 H   0  0  0  0  0  0  0  0  0  0  0  0
   -7.6269    6.6969  -27.1851 H   0  0  0  0  0  0  0  0  0  0  0  0
   -7.2873    6.3500  -22.8580 H   0  0  0  0  0  0  0  0  0  0  0  0
   -8.8522    5.6286  -22.4658 H   0  0  0  0  0  0  0  0  0  0  0  0
   -7.2791    3.7921  -22.6403 H   0  0  0  0  0  0  0  0  0  0  0  0
   -6.5523    4.5029  -24.0775 H   0  0  0  0  0  0  0  0  0  0  0  0
  -12.8313    1.0506  -23.9705 H   0  0  0  0  0  0  0  0  0  0  0  0
  -14.4227   -0.6405  -23.0261 H   0  0  0  0  0  0  0  0  0  0  0  0
  -11.1465   -3.2742  -22.2328 H   0  0  0  0  0  0  0  0  0  0  0  0
  1  2  1  0
  2  3  1  0
  3  4  1  0
  4  5  1  0
  5  6  2  0
  6  7  1  0
  7  8  2  0
  8  9  1  0
  9 10  2  0
 10 11  1  0
 11 12  2  0
 12 13  1  0
 13 14  2  0
  4 15  1  0
 15 16  2  0
 15 17  1  0
 17 18  1  6
 18 19  1  0
 19 20  1  0
 20 21  1  0
 21 22  1  0
 22 23  1  0
 23 24  1  0
 24 25  1  0
 25 26  1  0
 26 27  1  0
 26 28  2  0
 26 29  2  0
 25 30  1  0
 30 31  1  0
 19 32  1  0
 32 33  2  0
 32 34  1  0
 34 35  2  0
 35 36  1  0
 36 37  2  0
 37 38  1  0
 37 39  1  0
 39 40  2  0
 17  2  1  0
 31 22  1  0
 40 34  1  0
 14  5  1  0
 40 17  1  0
 14  9  1  0
  1 41  1  0
  1 42  1  0
  1 43  1  0
  2 44  1  1
  3 45  1  0
  3 46  1  0
  6 47  1  0
  8 48  1  0
 10 49  1  0
 11 50  1  0
 12 51  1  0
 13 52  1  0
 18 53  1  0
 18 54  1  0
 20 55  1  0
 20 56  1  0
 21 57  1  0
 21 58  1  0
 22 59  1  0
 23 60  1  0
 23 61  1  0
 24 62  1  0
 24 63  1  0
 27 64  1  0
 27 65  1  0
 27 66  1  0
 30 67  1  0
 30 68  1  0
 31 69  1  0
 31 70  1  0
 35 71  1  0
 36 72  1  0
 39 73  1  0
M  CHG  1  22   1
M  END
