mobile
  PyMOL3.1          3D                             0

 53 57  0  0  0  0  0  0  0  0999 V2000
   -8.7579    0.0990  -21.4398 O   0  0  0  0  0  0  0  0  0  0  0  0
   -8.2750   -0.9777  -21.7873 C   0  0  0  0  0  0  0  0  0  0  0  0
   -7.1919   -1.5252  -21.1921 N   0  0  0  0  0  0  0  0  0  0  0  0
   -6.4411   -0.9913  -20.1266 C   0  0  0  0  0  0  0  0  0  0  0  0
   -5.2952   -0.1926  -20.4351 C   0  0  0  0  0  0  0  0  0  0  0  0
   -4.7847   -0.0176  -21.7491 C   0  0  0  0  0  0  0  0  0  0  0  0
   -3.6973    0.7792  -21.9787 C   0  0  0  0  0  0  0  0  0  0  0  0
   -3.0717    1.4424  -20.9312 C   0  0  0  0  0  0  0  0  0  0  0  0
   -3.5184    1.2974  -19.6486 C   0  0  0  0  0  0  0  0  0  0  0  0
   -4.6330    0.4681  -19.3618 C   0  0  0  0  0  0  0  0  0  0  0  0
   -5.1327    0.2632  -18.0500 C   0  0  0  0  0  0  0  0  0  0  0  0
   -6.1792   -0.4972  -17.7623 N   0  0  0  0  0  0  0  0  0  0  0  0
   -6.8089   -1.0980  -18.7832 C   0  0  0  0  0  0  0  0  0  0  0  0
   -8.8292   -1.7808  -22.9657 C   0  0  0  0  0  0  0  0  0  0  0  0
  -10.3132   -1.5094  -23.0791 C   0  0  0  0  0  0  0  0  0  0  0  0
  -10.7809   -0.4173  -23.8210 C   0  0  0  0  0  0  0  0  0  0  0  0
  -12.1469   -0.1271  -23.8514 C   0  0  0  0  0  0  0  0  0  0  0  0
  -13.0449   -0.9235  -23.1629 C   0  0  0  0  0  0  0  0  0  0  0  0
  -11.2302   -2.3239  -22.4186 C   0  0  0  0  0  0  0  0  0  0  0  0
  -12.5754   -2.0155  -22.4660 C   0  0  0  0  0  0  0  0  0  0  0  0
  -13.7018   -3.0133  -21.5869 Cl  0  0  0  0  0  0  0  0  0  0  0  0
   -8.1314   -1.3672  -24.2608 C   0  0  0  0  0  0  0  0  0  0  0  0
   -8.5419   -0.0239  -24.6814 N   0  0  0  0  0  0  0  0  0  0  0  0
   -9.8521    0.3976  -24.6243 C   0  0  0  0  0  0  0  0  0  0  0  0
  -10.2162    1.4318  -25.1540 O   0  0  0  0  0  0  0  0  0  0  0  0
   -7.6313    0.5975  -25.6263 C   0  0  0  0  0  0  0  0  0  0  0  0
   -7.1103    1.9805  -25.2623 C   0  0  0  0  0  0  0  0  0  0  0  0
   -6.3988    2.6029  -26.0490 O   0  0  0  0  0  0  0  0  0  0  0  0
   -7.4954    2.4815  -24.0802 N   0  0  0  0  0  0  0  0  0  0  0  0
   -6.5588    2.8918  -23.0336 C   0  0  0  0  0  0  0  0  0  0  0  0
   -6.8479    4.1273  -22.2694 C   0  0  0  0  0  0  0  0  0  0  0  0
   -5.7340    4.1031  -23.2515 C   0  0  0  0  0  0  0  0  0  0  0  0
   -6.8881   -2.4088  -21.5499 H   0  0  0  0  0  0  0  0  0  0  0  0
   -5.2617   -0.5203  -22.5768 H   0  0  0  0  0  0  0  0  0  0  0  0
   -3.3221    0.8949  -22.9851 H   0  0  0  0  0  0  0  0  0  0  0  0
   -2.2226    2.0783  -21.1333 H   0  0  0  0  0  0  0  0  0  0  0  0
   -3.0194    1.8193  -18.8448 H   0  0  0  0  0  0  0  0  0  0  0  0
   -4.6282    0.7595  -17.2347 H   0  0  0  0  0  0  0  0  0  0  0  0
   -7.6663   -1.7104  -18.5487 H   0  0  0  0  0  0  0  0  0  0  0  0
   -8.6626   -2.8534  -22.7872 H   0  0  0  0  0  0  0  0  0  0  0  0
  -12.5043    0.7225  -24.4134 H   0  0  0  0  0  0  0  0  0  0  0  0
  -14.1005   -0.6927  -23.1731 H   0  0  0  0  0  0  0  0  0  0  0  0
  -10.8900   -3.1913  -21.8727 H   0  0  0  0  0  0  0  0  0  0  0  0
   -7.0427   -1.3760  -24.1003 H   0  0  0  0  0  0  0  0  0  0  0  0
   -8.3912   -2.0856  -25.0529 H   0  0  0  0  0  0  0  0  0  0  0  0
   -6.7618   -0.0670  -25.7383 H   0  0  0  0  0  0  0  0  0  0  0  0
   -8.1556    0.6821  -26.5896 H   0  0  0  0  0  0  0  0  0  0  0  0
   -8.4750    2.5801  -23.9042 H   0  0  0  0  0  0  0  0  0  0  0  0
   -6.0784    2.0806  -22.4680 H   0  0  0  0  0  0  0  0  0  0  0  0
   -7.7579    4.7071  -22.4846 H   0  0  0  0  0  0  0  0  0  0  0  0
   -6.6314    4.1719  -21.1916 H   0  0  0  0  0  0  0  0  0  0  0  0
   -4.6908    4.1300  -22.9006 H   0  0  0  0  0  0  0  0  0  0  0  0
   -5.8183    4.6651  -24.1936 H   0  0  0  0  0  0  0  0  0  0  0  0
  1  2  2  0  0  0  0
  2  3  1  0  0  0  0
  2 14  1  0  0  0  0
  3  4  1  0  0  0  0
  3 33  1  0  0  0  0
  4  5  4  0  0  0  0
  4 13  4  0  0  0  0
  5  6  4  0  0  0  0
  5 10  4  0  0  0  0
  6  7  4  0  0  0  0
  6 34  1  0  0  0  0
  7  8  4  0  0  0  0
  7 35  1  0  0  0  0
  8  9  4  0  0  0  0
  8 36  1  0  0  0  0
  9 10  4  0  0  0  0
  9 37  1  0  0  0  0
 10 11  4  0  0  0  0
 11 12  4  0  0  0  0
 11 38  1  0  0  0  0
 12 13  4  0  0  0  0
 13 39  1  0  0  0  0
 14 15  1  0  0  0  0
 14 22  1  0  0  0  0
 14 40  1  0  0  0  0
 15 16  4  0  0  0  0
 15 19  4  0  0  0  0
 16 17  4  0  0  0  0
 16 24  1  0  0  0  0
 17 18  4  0  0  0  0
 17 41  1  0  0  0  0
 18 20  4  0  0  0  0
 18 42  1  0  0  0  0
 19 20  4  0  0  0  0
 19 43  1  0  0  0  0
 20 21  1  0  0  0  0
 22 23  1  0  0  0  0
 22 44  1  0  0  0  0
 22 45  1  0  0  0  0
 23 24  1  0  0  0  0
 23 26  1  0  0  0  0
 24 25  2  0  0  0  0
 26 27  1  0  0  0  0
 26 46  1  0  0  0  0
 26 47  1  0  0  0  0
 27 28  2  0  0  0  0
 27 29  1  0  0  0  0
 29 30  1  0  0  0  0
 29 48  1  0  0  0  0
 30 31  1  0  0  0  0
 30 32  1  0  0  0  0
 30 49  1  0  0  0  0
 31 32  1  0  0  0  0
 31 50  1  0  0  0  0
 31 51  1  0  0  0  0
 32 52  1  0  0  0  0
 32 53  1  0  0  0  0
M  END
$$$$
