
     RDKit          3D

 42 45  0  0  0  0  0  0  0  0999 V2000
   -7.6406    0.6052  -25.6372 C   0  0  0  0  0  0  0  0  0  0  0  0
   -8.5297   -0.0530  -24.6973 N   0  0  0  0  0  0  0  0  0  0  0  0
   -8.1539   -1.3953  -24.2845 C   0  0  0  0  0  0  0  0  0  0  0  0
   -8.8474   -1.8009  -22.9733 C   0  0  1  0  0  0  0  0  0  0  0  0
   -8.2850   -0.9991  -21.7829 C   0  0  0  0  0  0  0  0  0  0  0  0
   -8.7236    0.0688  -21.4238 O   0  0  0  0  0  0  0  0  0  0  0  0
   -7.1994   -1.5902  -21.1636 N   0  0  0  0  0  0  0  0  0  0  0  0
   -6.4506   -0.9524  -20.1358 C   0  0  0  0  0  0  0  0  0  0  0  0
   -6.7751   -1.1301  -18.8164 C   0  0  0  0  0  0  0  0  0  0  0  0
   -6.0715   -0.6227  -17.7718 N   0  0  0  0  0  0  0  0  0  0  0  0
   -5.0512    0.1534  -18.0404 C   0  0  0  0  0  0  0  0  0  0  0  0
   -4.6010    0.4291  -19.3657 C   0  0  0  0  0  0  0  0  0  0  0  0
   -3.5004    1.2844  -19.6359 C   0  0  0  0  0  0  0  0  0  0  0  0
   -3.0534    1.4516  -20.9196 C   0  0  0  0  0  0  0  0  0  0  0  0
   -3.6890    0.7822  -21.9922 C   0  0  0  0  0  0  0  0  0  0  0  0
   -4.7844   -0.0105  -21.7581 C   0  0  0  0  0  0  0  0  0  0  0  0
   -5.2854   -0.1803  -20.4401 C   0  0  0  0  0  0  0  0  0  0  0  0
  -10.3207   -1.5576  -23.1235 C   0  0  0  0  0  0  0  0  0  0  0  0
  -11.2387   -2.3777  -22.4762 C   0  0  0  0  0  0  0  0  0  0  0  0
  -12.5901   -2.0617  -22.5088 C   0  0  0  0  0  0  0  0  0  0  0  0
  -13.7151   -3.0599  -21.6255 Cl  0  0  0  0  0  0  0  0  0  0  0  0
  -13.0461   -0.9424  -23.2072 C   0  0  0  0  0  0  0  0  0  0  0  0
  -12.1252   -0.1420  -23.8658 C   0  0  0  0  0  0  0  0  0  0  0  0
  -10.7601   -0.4206  -23.7954 C   0  0  0  0  0  0  0  0  0  0  0  0
   -9.7485    0.5149  -24.4192 C   0  0  0  0  0  0  0  0  0  0  0  0
   -9.9854    1.6960  -24.6174 O   0  0  0  0  0  0  0  0  0  0  0  0
   -6.6006    0.4312  -25.3370 H   0  0  0  0  0  0  0  0  0  0  0  0
   -7.8589    1.6720  -25.6186 H   0  0  0  0  0  0  0  0  0  0  0  0
   -7.7639    0.2332  -26.6661 H   0  0  0  0  0  0  0  0  0  0  0  0
   -8.3964   -2.1353  -25.0613 H   0  0  0  0  0  0  0  0  0  0  0  0
   -7.0661   -1.4086  -24.1457 H   0  0  0  0  0  0  0  0  0  0  0  0
   -8.6540   -2.8588  -22.7639 H   0  0  0  0  0  0  0  0  0  0  0  0
   -6.8025   -2.4316  -21.5545 H   0  0  0  0  0  0  0  0  0  0  0  0
   -7.6644   -1.7010  -18.5636 H   0  0  0  0  0  0  0  0  0  0  0  0
   -4.5835    0.6591  -17.1932 H   0  0  0  0  0  0  0  0  0  0  0  0
   -3.0384    1.8036  -18.8015 H   0  0  0  0  0  0  0  0  0  0  0  0
   -2.2050    2.0977  -21.1244 H   0  0  0  0  0  0  0  0  0  0  0  0
   -3.3192    0.9097  -23.0053 H   0  0  0  0  0  0  0  0  0  0  0  0
   -5.2850   -0.5209  -22.5726 H   0  0  0  0  0  0  0  0  0  0  0  0
  -10.8937   -3.2096  -21.8651 H   0  0  0  0  0  0  0  0  0  0  0  0
  -14.1024   -0.6925  -23.1861 H   0  0  0  0  0  0  0  0  0  0  0  0
  -12.4382    0.7412  -24.4109 H   0  0  0  0  0  0  0  0  0  0  0  0
  1  2  1  0
  2  3  1  0
  3  4  1  0
  4  5  1  0
  5  6  2  0
  5  7  1  0
  7  8  1  0
  8  9  2  0
  9 10  1  0
 10 11  2  0
 11 12  1  0
 12 13  2  0
 13 14  1  0
 14 15  2  0
 15 16  1  0
 16 17  2  0
  4 18  1  0
 18 19  2  0
 19 20  1  0
 20 21  1  0
 20 22  2  0
 22 23  1  0
 23 24  2  0
 24 25  1  0
 25 26  2  0
 25  2  1  0
 17  8  1  0
 24 18  1  0
 17 12  1  0
  1 27  1  0
  1 28  1  0
  1 29  1  0
  3 30  1  0
  3 31  1  0
  4 32  1  1
  7 33  1  0
  9 34  1  0
 11 35  1  0
 13 36  1  0
 14 37  1  0
 15 38  1  0
 16 39  1  0
 19 40  1  0
 22 41  1  0
 23 42  1  0
M  END
