
     RDKit          3D

 42 45  0  0  0  0  0  0  0  0999 V2000
    8.0122    1.7983   25.5426 C   0  0  0  0  0  0  0  0  0  0  0  0
    8.9008    1.1450   24.5988 N   0  0  0  0  0  0  0  0  0  0  0  0
    8.5536   -0.2149   24.2199 C   0  0  0  0  0  0  0  0  0  0  0  0
    9.2328   -0.6283   22.9037 C   0  0  1  0  0  0  0  0  0  0  0  0
    8.6265    0.1340   21.7089 C   0  0  0  0  0  0  0  0  0  0  0  0
    9.0293    1.2057   21.3203 O   0  0  0  0  0  0  0  0  0  0  0  0
    7.5457   -0.4982   21.1227 N   0  0  0  0  0  0  0  0  0  0  0  0
    6.7607    0.0986   20.0972 C   0  0  0  0  0  0  0  0  0  0  0  0
    7.0648   -0.0971   18.7755 C   0  0  0  0  0  0  0  0  0  0  0  0
    6.3281    0.3701   17.7350 N   0  0  0  0  0  0  0  0  0  0  0  0
    5.2925    1.1241   18.0081 C   0  0  0  0  0  0  0  0  0  0  0  0
    4.8602    1.4145   19.3362 C   0  0  0  0  0  0  0  0  0  0  0  0
    3.7423    2.2456   19.6109 C   0  0  0  0  0  0  0  0  0  0  0  0
    3.3153    2.4268   20.8995 C   0  0  0  0  0  0  0  0  0  0  0  0
    3.9890    1.7964   21.9725 C   0  0  0  0  0  0  0  0  0  0  0  0
    5.1007    1.0285   21.7328 C   0  0  0  0  0  0  0  0  0  0  0  0
    5.5810    0.8454   20.4089 C   0  0  0  0  0  0  0  0  0  0  0  0
   10.7016   -0.3430   23.0204 C   0  0  0  0  0  0  0  0  0  0  0  0
   11.6289   -1.1513   22.3716 C   0  0  0  0  0  0  0  0  0  0  0  0
   12.9717   -0.7989   22.3717 C   0  0  0  0  0  0  0  0  0  0  0  0
   14.1063   -1.7845   21.4865 Cl  0  0  0  0  0  0  0  0  0  0  0  0
   13.4105    0.3460   23.0388 C   0  0  0  0  0  0  0  0  0  0  0  0
   12.4810    1.1348   23.6993 C   0  0  0  0  0  0  0  0  0  0  0  0
   11.1228    0.8187   23.6610 C   0  0  0  0  0  0  0  0  0  0  0  0
   10.0983    1.7394   24.2858 C   0  0  0  0  0  0  0  0  0  0  0  0
   10.3070    2.9301   24.4561 O   0  0  0  0  0  0  0  0  0  0  0  0
    6.9718    1.5906   25.2662 H   0  0  0  0  0  0  0  0  0  0  0  0
    8.2013    2.8699   25.4987 H   0  0  0  0  0  0  0  0  0  0  0  0
    8.1650    1.4506   26.5761 H   0  0  0  0  0  0  0  0  0  0  0  0
    8.8306   -0.9323   25.0063 H   0  0  0  0  0  0  0  0  0  0  0  0
    7.4641   -0.2599   24.1026 H   0  0  0  0  0  0  0  0  0  0  0  0
    9.0641   -1.6950   22.7190 H   0  0  0  0  0  0  0  0  0  0  0  0
    7.1791   -1.3418   21.5377 H   0  0  0  0  0  0  0  0  0  0  0  0
    7.9642   -0.6492   18.5168 H   0  0  0  0  0  0  0  0  0  0  0  0
    4.7954    1.6000   17.1603 H   0  0  0  0  0  0  0  0  0  0  0  0
    3.2507    2.7353   18.7755 H   0  0  0  0  0  0  0  0  0  0  0  0
    2.4539    3.0541   21.1080 H   0  0  0  0  0  0  0  0  0  0  0  0
    3.6351    1.9345   22.9899 H   0  0  0  0  0  0  0  0  0  0  0  0
    5.6302    0.5481   22.5473 H   0  0  0  0  0  0  0  0  0  0  0  0
   11.2950   -2.0043   21.7839 H   0  0  0  0  0  0  0  0  0  0  0  0
   14.4591    0.6234   22.9922 H   0  0  0  0  0  0  0  0  0  0  0  0
   12.7803    2.0369   24.2207 H   0  0  0  0  0  0  0  0  0  0  0  0
  1  2  1  0
  2  3  1  0
  3  4  1  0
  4  5  1  0
  5  6  2  0
  5  7  1  0
  7  8  1  0
  8  9  2  0
  9 10  1  0
 10 11  2  0
 11 12  1  0
 12 13  2  0
 13 14  1  0
 14 15  2  0
 15 16  1  0
 16 17  2  0
  4 18  1  0
 18 19  2  0
 19 20  1  0
 20 21  1  0
 20 22  2  0
 22 23  1  0
 23 24  2  0
 24 25  1  0
 25 26  2  0
 25  2  1  0
 17  8  1  0
 24 18  1  0
 17 12  1  0
  1 27  1  0
  1 28  1  0
  1 29  1  0
  3 30  1  0
  3 31  1  0
  4 32  1  6
  7 33  1  0
  9 34  1  0
 11 35  1  0
 13 36  1  0
 14 37  1  0
 15 38  1  0
 16 39  1  0
 19 40  1  0
 22 41  1  0
 23 42  1  0
M  END
$$$$
