
     RDKit          3D

 68 73  0  0  0  0  0  0  0  0999 V2000
   -7.0118    3.6305  -22.4887 C   0  0  0  0  0  0  0  0  0  0  0  0
   -7.7903    2.6902  -23.2688 N   0  0  0  0  0  0  0  0  0  0  0  0
   -7.5025    2.5219  -24.5769 C   0  0  0  0  0  0  0  0  0  0  0  0
   -6.7346    3.2428  -25.2002 O   0  0  0  0  0  0  0  0  0  0  0  0
   -8.1557    1.3527  -25.3193 C   0  0  0  0  0  0  0  0  0  0  0  0
   -8.9841    0.4587  -24.5510 N   0  0  0  0  0  0  0  0  0  0  0  0
   -8.5097   -0.8896  -24.2791 C   0  0  0  0  0  0  0  0  0  0  0  0
   -9.0689   -1.4273  -22.9354 C   0  0  2  0  0  0  0  0  0  0  0  0
   -8.4686   -0.5784  -21.7892 C   0  0  0  0  0  0  0  0  0  0  0  0
   -8.7777    0.5659  -21.5092 O   0  0  0  0  0  0  0  0  0  0  0  0
   -7.4949   -1.3117  -21.1515 N   0  0  0  0  0  0  0  0  0  0  0  0
   -6.6539   -0.7972  -20.1261 C   0  0  0  0  0  0  0  0  0  0  0  0
   -6.8863   -1.1487  -18.8192 C   0  0  0  0  0  0  0  0  0  0  0  0
   -6.1276   -0.7514  -17.7675 N   0  0  0  0  0  0  0  0  0  0  0  0
   -5.1032    0.0289  -18.0110 C   0  0  0  0  0  0  0  0  0  0  0  0
   -4.7540    0.4834  -19.3155 C   0  0  0  0  0  0  0  0  0  0  0  0
   -3.6654    1.3687  -19.5311 C   0  0  0  0  0  0  0  0  0  0  0  0
   -3.3264    1.7610  -20.7943 C   0  0  0  0  0  0  0  0  0  0  0  0
   -4.0595    1.2864  -21.9030 C   0  0  0  0  0  0  0  0  0  0  0  0
   -5.1400    0.4588  -21.7222 C   0  0  0  0  0  0  0  0  0  0  0  0
   -5.5298    0.0446  -20.4165 C   0  0  0  0  0  0  0  0  0  0  0  0
   -7.2243   -2.5782  -21.8022 C   0  0  0  0  0  0  0  0  0  0  0  0
   -8.5385   -2.8341  -22.5436 C   0  0  2  0  0  0  0  0  0  0  0  0
   -8.4572   -3.8424  -23.6955 C   0  0  0  0  0  0  0  0  0  0  0  0
   -8.1911   -5.2151  -23.3301 N   0  0  0  0  0  0  0  0  0  0  0  0
   -6.9079   -5.7151  -23.1298 C   0  0  0  0  0  0  0  0  0  0  0  0
   -5.6491   -5.2154  -23.5518 C   0  0  0  0  0  0  0  0  0  0  0  0
   -4.6660   -6.0547  -23.2358 N   0  0  0  0  0  0  0  0  0  0  0  0
   -5.2572   -7.0683  -22.6082 N   0  0  0  0  0  0  0  0  0  0  0  0
   -4.4685   -8.1911  -22.1737 C   0  0  0  0  0  0  0  0  0  0  0  0
   -6.6009   -6.9199  -22.5241 C   0  0  0  0  0  0  0  0  0  0  0  0
  -10.5778   -1.3034  -23.0376 C   0  0  0  0  0  0  0  0  0  0  0  0
  -11.4695   -2.2538  -22.5333 C   0  0  0  0  0  0  0  0  0  0  0  0
  -12.8239   -1.9761  -22.4824 C   0  0  0  0  0  0  0  0  0  0  0  0
  -13.8660   -3.1057  -21.6601 Cl  0  0  0  0  0  0  0  0  0  0  0  0
  -13.3604   -0.8018  -23.0091 C   0  0  0  0  0  0  0  0  0  0  0  0
  -12.4966    0.1068  -23.5864 C   0  0  0  0  0  0  0  0  0  0  0  0
  -11.1275   -0.1497  -23.6152 C   0  0  0  0  0  0  0  0  0  0  0  0
  -10.2539    0.8742  -24.2598 C   0  0  0  0  0  0  0  0  0  0  0  0
  -10.6451    2.0118  -24.4862 O   0  0  0  0  0  0  0  0  0  0  0  0
   -5.9476    3.5506  -22.7445 H   0  0  0  0  0  0  0  0  0  0  0  0
   -7.3137    4.6729  -22.6503 H   0  0  0  0  0  0  0  0  0  0  0  0
   -7.1407    3.3846  -21.4299 H   0  0  0  0  0  0  0  0  0  0  0  0
   -8.3515    2.0118  -22.7567 H   0  0  0  0  0  0  0  0  0  0  0  0
   -8.7354    1.7792  -26.1409 H   0  0  0  0  0  0  0  0  0  0  0  0
   -7.3392    0.7805  -25.7714 H   0  0  0  0  0  0  0  0  0  0  0  0
   -8.8124   -1.5635  -25.0923 H   0  0  0  0  0  0  0  0  0  0  0  0
   -7.4141   -0.8664  -24.2397 H   0  0  0  0  0  0  0  0  0  0  0  0
   -7.7484   -1.7669  -18.5692 H   0  0  0  0  0  0  0  0  0  0  0  0
   -4.5084    0.3673  -17.1601 H   0  0  0  0  0  0  0  0  0  0  0  0
   -3.1168    1.7317  -18.6681 H   0  0  0  0  0  0  0  0  0  0  0  0
   -2.5011    2.4481  -20.9551 H   0  0  0  0  0  0  0  0  0  0  0  0
   -3.7851    1.6060  -22.9039 H   0  0  0  0  0  0  0  0  0  0  0  0
   -5.7048    0.1193  -22.5857 H   0  0  0  0  0  0  0  0  0  0  0  0
   -6.3731   -2.4982  -22.4997 H   0  0  0  0  0  0  0  0  0  0  0  0
   -6.9796   -3.3441  -21.0612 H   0  0  0  0  0  0  0  0  0  0  0  0
   -9.2215   -3.2171  -21.7780 H   0  0  0  0  0  0  0  0  0  0  0  0
   -7.6712   -3.5357  -24.3905 H   0  0  0  0  0  0  0  0  0  0  0  0
   -9.3981   -3.8043  -24.2597 H   0  0  0  0  0  0  0  0  0  0  0  0
   -8.8906   -5.6678  -22.7583 H   0  0  0  0  0  0  0  0  0  0  0  0
   -5.3977   -4.2900  -24.0579 H   0  0  0  0  0  0  0  0  0  0  0  0
   -4.8622   -8.5792  -21.2338 H   0  0  0  0  0  0  0  0  0  0  0  0
   -3.4511   -7.8295  -22.0290 H   0  0  0  0  0  0  0  0  0  0  0  0
   -4.4663   -8.9910  -22.9193 H   0  0  0  0  0  0  0  0  0  0  0  0
   -7.2233   -7.6516  -22.0259 H   0  0  0  0  0  0  0  0  0  0  0  0
  -11.1339   -3.1954  -22.1145 H   0  0  0  0  0  0  0  0  0  0  0  0
  -14.4260   -0.6070  -22.9294 H   0  0  0  0  0  0  0  0  0  0  0  0
  -12.8618    1.0429  -23.9962 H   0  0  0  0  0  0  0  0  0  0  0  0
  1  2  1  0
  2  3  1  0
  3  4  2  0
  3  5  1  0
  5  6  1  0
  6  7  1  0
  8  7  1  6
  8  9  1  0
  9 10  2  0
  9 11  1  0
 11 12  1  0
 12 13  2  0
 13 14  1  0
 14 15  2  0
 15 16  1  0
 16 17  2  0
 17 18  1  0
 18 19  2  0
 19 20  1  0
 20 21  2  0
 11 22  1  0
 22 23  1  0
 23 24  1  0
 24 25  1  0
 25 26  1  0
 26 27  1  0
 27 28  2  0
 28 29  1  0
 29 30  1  0
 29 31  1  0
  8 32  1  0
 32 33  2  0
 33 34  1  0
 34 35  1  0
 34 36  2  0
 36 37  1  0
 37 38  2  0
 38 39  1  0
 39 40  2  0
 39  6  1  0
 23  8  1  0
 31 26  2  0
 38 32  1  0
 21 12  1  0
 21 16  1  0
  1 41  1  0
  1 42  1  0
  1 43  1  0
  2 44  1  0
  5 45  1  0
  5 46  1  0
  7 47  1  0
  7 48  1  0
 13 49  1  0
 15 50  1  0
 17 51  1  0
 18 52  1  0
 19 53  1  0
 20 54  1  0
 22 55  1  0
 22 56  1  0
 23 57  1  1
 24 58  1  0
 24 59  1  0
 25 60  1  0
 27 61  1  0
 30 62  1  0
 30 63  1  0
 30 64  1  0
 31 65  1  0
 33 66  1  0
 36 67  1  0
 37 68  1  0
M  END
