
     RDKit          3D

 50 52  0  0  0  0  0  0  0  0999 V2000
   -6.7440    0.6697  -24.1192 C   0  0  0  0  0  0  0  0  0  0  0  0
   -6.7419   -0.6249  -24.4473 C   0  0  0  0  0  0  0  0  0  0  0  0
   -7.2848   -1.8216  -23.6539 C   0  0  0  0  0  0  0  0  0  0  0  0
   -8.2765   -1.5584  -22.6206 N   0  0  0  0  0  0  0  0  0  0  0  0
   -7.8322   -0.8890  -21.4796 C   0  0  0  0  0  0  0  0  0  0  0  0
   -8.2324    0.1997  -21.1369 O   0  0  0  0  0  0  0  0  0  0  0  0
   -6.8599   -1.5982  -20.7998 N   0  0  0  0  0  0  0  0  0  0  0  0
   -6.1073   -0.9946  -19.7646 C   0  0  0  0  0  0  0  0  0  0  0  0
   -6.3640   -1.2483  -18.4433 C   0  0  0  0  0  0  0  0  0  0  0  0
   -5.6941   -0.6779  -17.4075 N   0  0  0  0  0  0  0  0  0  0  0  0
   -4.7297    0.1681  -17.6982 C   0  0  0  0  0  0  0  0  0  0  0  0
   -4.3630    0.5253  -19.0325 C   0  0  0  0  0  0  0  0  0  0  0  0
   -3.3429    1.4702  -19.3343 C   0  0  0  0  0  0  0  0  0  0  0  0
   -3.0677    1.8019  -20.6337 C   0  0  0  0  0  0  0  0  0  0  0  0
   -3.7890    1.2163  -21.6969 C   0  0  0  0  0  0  0  0  0  0  0  0
   -4.7383    0.2580  -21.4422 C   0  0  0  0  0  0  0  0  0  0  0  0
   -5.0712   -0.0749  -20.0985 C   0  0  0  0  0  0  0  0  0  0  0  0
   -9.6267   -1.2970  -22.9802 C   0  0  0  0  0  0  0  0  0  0  0  0
   -9.9986   -0.1895  -23.7358 C   0  0  0  0  0  0  0  0  0  0  0  0
  -11.3430    0.0337  -24.0040 C   0  0  0  0  0  0  0  0  0  0  0  0
  -12.3156   -0.8391  -23.5302 C   0  0  0  0  0  0  0  0  0  0  0  0
  -11.9205   -1.9335  -22.7709 C   0  0  0  0  0  0  0  0  0  0  0  0
  -13.1139   -3.0455  -22.1724 Cl  0  0  0  0  0  0  0  0  0  0  0  0
  -10.5879   -2.1602  -22.4647 C   0  0  0  0  0  0  0  0  0  0  0  0
   -6.1625   -0.9859  -25.7941 C   0  0  0  0  0  0  0  0  0  0  0  0
   -6.2154   -0.2400  -26.7668 O   0  0  0  0  0  0  0  0  0  0  0  0
   -5.5744   -2.2109  -25.8330 N   0  0  0  0  0  0  0  0  0  0  0  0
   -5.1429   -2.8125  -27.0810 C   0  0  0  0  0  0  0  0  0  0  0  0
   -6.3189   -3.2803  -27.9435 C   0  0  0  0  0  0  0  0  0  0  0  0
   -6.4033    1.4184  -24.8381 H   0  0  0  0  0  0  0  0  0  0  0  0
   -7.1003    1.0293  -23.1540 H   0  0  0  0  0  0  0  0  0  0  0  0
   -6.4594   -2.3436  -23.1498 H   0  0  0  0  0  0  0  0  0  0  0  0
   -7.7361   -2.5343  -24.3485 H   0  0  0  0  0  0  0  0  0  0  0  0
   -6.8773   -2.6047  -20.8893 H   0  0  0  0  0  0  0  0  0  0  0  0
   -7.1715   -1.9298  -18.1738 H   0  0  0  0  0  0  0  0  0  0  0  0
   -4.2231    0.6488  -16.8577 H   0  0  0  0  0  0  0  0  0  0  0  0
   -2.7923    1.9376  -18.5224 H   0  0  0  0  0  0  0  0  0  0  0  0
   -2.2941    2.5253  -20.8742 H   0  0  0  0  0  0  0  0  0  0  0  0
   -3.5609    1.5239  -22.7131 H   0  0  0  0  0  0  0  0  0  0  0  0
   -5.2352   -0.2533  -22.2637 H   0  0  0  0  0  0  0  0  0  0  0  0
   -9.2455    0.5164  -24.0697 H   0  0  0  0  0  0  0  0  0  0  0  0
  -11.6323    0.9206  -24.5567 H   0  0  0  0  0  0  0  0  0  0  0  0
  -13.3699   -0.6897  -23.7454 H   0  0  0  0  0  0  0  0  0  0  0  0
  -10.2786   -2.9896  -21.8326 H   0  0  0  0  0  0  0  0  0  0  0  0
   -5.4964   -2.7472  -24.9826 H   0  0  0  0  0  0  0  0  0  0  0  0
   -4.5362   -2.0780  -27.6254 H   0  0  0  0  0  0  0  0  0  0  0  0
   -4.4996   -3.6636  -26.8300 H   0  0  0  0  0  0  0  0  0  0  0  0
   -5.9508   -3.7935  -28.8385 H   0  0  0  0  0  0  0  0  0  0  0  0
   -6.9324   -2.4245  -28.2479 H   0  0  0  0  0  0  0  0  0  0  0  0
   -6.9555   -3.9792  -27.3863 H   0  0  0  0  0  0  0  0  0  0  0  0
  1  2  2  0
  2  3  1  0
  3  4  1  0
  4  5  1  0
  5  6  2  0
  5  7  1  0
  7  8  1  0
  8  9  2  0
  9 10  1  0
 10 11  2  0
 11 12  1  0
 12 13  2  0
 13 14  1  0
 14 15  2  0
 15 16  1  0
 16 17  2  0
  4 18  1  0
 18 19  2  0
 19 20  1  0
 20 21  2  0
 21 22  1  0
 22 23  1  0
 22 24  2  0
  2 25  1  0
 25 26  2  0
 25 27  1  0
 27 28  1  0
 28 29  1  0
 17  8  1  0
 24 18  1  0
 17 12  1  0
  1 30  1  0
  1 31  1  0
  3 32  1  0
  3 33  1  0
  7 34  1  0
  9 35  1  0
 11 36  1  0
 13 37  1  0
 14 38  1  0
 15 39  1  0
 16 40  1  0
 19 41  1  0
 20 42  1  0
 21 43  1  0
 24 44  1  0
 27 45  1  0
 28 46  1  0
 28 47  1  0
 29 48  1  0
 29 49  1  0
 29 50  1  0
M  END
