mobile
  PyMOL3.1          3D                             0

 48 50  0  0  0  0  0  0  0  0999 V2000
  -13.2655   -2.9172  -22.0689 Cl  0  0  0  0  0  0  0  0  0  0  0  0
  -12.0150   -2.0063  -22.8464 C   0  0  0  0  0  0  0  0  0  0  0  0
  -12.3258   -0.9627  -23.7002 C   0  0  0  0  0  0  0  0  0  0  0  0
  -13.9646   -0.5029  -23.9942 Cl  0  0  0  0  0  0  0  0  0  0  0  0
  -11.3177   -0.2354  -24.2944 C   0  0  0  0  0  0  0  0  0  0  0  0
   -9.9997   -0.5477  -24.0349 C   0  0  0  0  0  0  0  0  0  0  0  0
  -10.6953   -2.3198  -22.5728 C   0  0  0  0  0  0  0  0  0  0  0  0
   -9.6711   -1.5847  -23.1676 C   0  0  0  0  0  0  0  0  0  0  0  0
   -8.1958   -1.9018  -22.8792 C   0  0  0  0  0  0  0  0  0  0  0  0
   -8.0746   -3.3723  -22.4585 C   0  0  0  0  0  0  0  0  0  0  0  0
   -7.4124   -1.7200  -24.1125 N   0  0  0  0  0  0  0  0  0  0  0  0
   -6.7762   -0.6509  -24.6206 C   0  0  0  0  0  0  0  0  0  0  0  0
   -6.8418    0.4781  -24.1420 O   0  0  0  0  0  0  0  0  0  0  0  0
   -5.9594   -0.8792  -25.8721 C   0  0  0  0  0  0  0  0  0  0  0  0
   -5.5355   -2.2288  -25.8328 O   0  0  0  0  0  0  0  0  0  0  0  0
   -5.0292   -2.6843  -27.0792 C   0  0  0  0  0  0  0  0  0  0  0  0
   -7.7206   -0.9195  -21.7545 C   0  0  0  0  0  0  0  0  0  0  0  0
   -7.9737    0.2775  -21.8010 O   0  0  0  0  0  0  0  0  0  0  0  0
   -7.1100   -1.4811  -20.6905 N   0  0  0  0  0  0  0  0  0  0  0  0
   -6.1757   -0.9795  -19.7553 C   0  0  0  0  0  0  0  0  0  0  0  0
   -5.2184    0.0271  -20.1229 C   0  0  0  0  0  0  0  0  0  0  0  0
   -4.7625    0.2390  -21.4511 C   0  0  0  0  0  0  0  0  0  0  0  0
   -3.7500    1.1151  -21.7186 C   0  0  0  0  0  0  0  0  0  0  0  0
   -3.1339    1.8170  -20.6972 C   0  0  0  0  0  0  0  0  0  0  0  0
   -3.5364    1.6569  -19.4052 C   0  0  0  0  0  0  0  0  0  0  0  0
   -4.5866    0.7616  -19.0808 C   0  0  0  0  0  0  0  0  0  0  0  0
   -4.9662    0.4759  -17.7515 C   0  0  0  0  0  0  0  0  0  0  0  0
   -5.8282   -0.4653  -17.4098 N   0  0  0  0  0  0  0  0  0  0  0  0
   -6.3813   -1.1811  -18.3938 C   0  0  0  0  0  0  0  0  0  0  0  0
  -11.5593    0.5777  -24.9627 H   0  0  0  0  0  0  0  0  0  0  0  0
   -9.2131    0.0195  -24.5101 H   0  0  0  0  0  0  0  0  0  0  0  0
  -10.4598   -3.1309  -21.8997 H   0  0  0  0  0  0  0  0  0  0  0  0
   -7.0207   -3.6086  -22.2497 H   0  0  0  0  0  0  0  0  0  0  0  0
   -8.6758   -3.5446  -21.5537 H   0  0  0  0  0  0  0  0  0  0  0  0
   -8.4411   -4.0167  -23.2711 H   0  0  0  0  0  0  0  0  0  0  0  0
   -7.3417   -2.5431  -24.6750 H   0  0  0  0  0  0  0  0  0  0  0  0
   -6.5749   -0.6993  -26.7658 H   0  0  0  0  0  0  0  0  0  0  0  0
   -5.0881   -0.2074  -25.8850 H   0  0  0  0  0  0  0  0  0  0  0  0
   -4.7168   -3.7353  -26.9868 H   0  0  0  0  0  0  0  0  0  0  0  0
   -5.8138   -2.6010  -27.8460 H   0  0  0  0  0  0  0  0  0  0  0  0
   -4.1647   -2.0696  -27.3710 H   0  0  0  0  0  0  0  0  0  0  0  0
   -7.3674   -2.4343  -20.5332 H   0  0  0  0  0  0  0  0  0  0  0  0
   -5.2251   -0.3014  -22.2641 H   0  0  0  0  0  0  0  0  0  0  0  0
   -3.4263    1.2622  -22.7386 H   0  0  0  0  0  0  0  0  0  0  0  0
   -2.3273    2.4975  -20.9257 H   0  0  0  0  0  0  0  0  0  0  0  0
   -3.0510    2.2184  -18.6205 H   0  0  0  0  0  0  0  0  0  0  0  0
   -4.5236    1.0658  -16.9625 H   0  0  0  0  0  0  0  0  0  0  0  0
   -7.0445   -1.9847  -18.1079 H   0  0  0  0  0  0  0  0  0  0  0  0
  1  2  1  0  0  0  0
  2  3  4  0  0  0  0
  2  7  4  0  0  0  0
  3  4  1  0  0  0  0
  3  5  4  0  0  0  0
  5  6  4  0  0  0  0
  5 30  1  0  0  0  0
  6  8  4  0  0  0  0
  6 31  1  0  0  0  0
  7  8  4  0  0  0  0
  7 32  1  0  0  0  0
  8  9  1  0  0  0  0
  9 10  1  0  0  0  0
  9 11  1  0  0  0  0
  9 17  1  0  0  0  0
 10 33  1  0  0  0  0
 10 34  1  0  0  0  0
 10 35  1  0  0  0  0
 11 12  1  0  0  0  0
 11 36  1  0  0  0  0
 12 13  2  0  0  0  0
 12 14  1  0  0  0  0
 14 15  1  0  0  0  0
 14 37  1  0  0  0  0
 14 38  1  0  0  0  0
 15 16  1  0  0  0  0
 16 39  1  0  0  0  0
 16 40  1  0  0  0  0
 16 41  1  0  0  0  0
 17 18  2  0  0  0  0
 17 19  1  0  0  0  0
 19 20  1  0  0  0  0
 19 42  1  0  0  0  0
 20 21  4  0  0  0  0
 20 29  4  0  0  0  0
 21 22  4  0  0  0  0
 21 26  4  0  0  0  0
 22 23  4  0  0  0  0
 22 43  1  0  0  0  0
 23 24  4  0  0  0  0
 23 44  1  0  0  0  0
 24 25  4  0  0  0  0
 24 45  1  0  0  0  0
 25 26  4  0  0  0  0
 25 46  1  0  0  0  0
 26 27  4  0  0  0  0
 27 28  4  0  0  0  0
 27 47  1  0  0  0  0
 28 29  4  0  0  0  0
 29 48  1  0  0  0  0
M  END
$$$$
