
     RDKit          3D

 40 42  0  0  0  0  0  0  0  0999 V2000
   -6.7028   -2.9798  -23.4198 O   0  0  0  0  0  0  0  0  0  0  0  0
   -7.8049   -3.4730  -23.5652 C   0  0  0  0  0  0  0  0  0  0  0  0
   -8.9918   -3.0701  -22.6892 C   0  0  0  0  0  0  0  0  0  0  0  0
   -9.5718   -1.8066  -23.3189 C   0  0  0  0  0  0  0  0  0  0  0  0
   -8.7166   -0.9005  -23.9042 C   0  0  0  0  0  0  0  0  0  0  0  0
   -9.0618    0.3199  -24.3933 N   0  0  0  0  0  0  0  0  0  0  0  0
  -10.3218    0.6517  -24.2999 C   0  0  0  0  0  0  0  0  0  0  0  0
  -11.3242   -0.1901  -23.7475 C   0  0  0  0  0  0  0  0  0  0  0  0
  -12.6652    0.2464  -23.6492 C   0  0  0  0  0  0  0  0  0  0  0  0
  -13.6231   -0.5667  -23.1109 C   0  0  0  0  0  0  0  0  0  0  0  0
  -13.2773   -1.8680  -22.6836 C   0  0  0  0  0  0  0  0  0  0  0  0
  -11.9826   -2.3176  -22.7687 C   0  0  0  0  0  0  0  0  0  0  0  0
  -10.9593   -1.4787  -23.2870 C   0  0  0  0  0  0  0  0  0  0  0  0
   -8.1191   -4.2476  -24.6714 N   0  0  0  0  0  0  0  0  0  0  0  0
   -7.5252   -3.8470  -25.9472 C   0  0  0  0  0  0  0  0  0  0  0  0
   -8.5760   -4.0415  -27.0394 C   0  0  0  0  0  0  0  0  0  0  0  0
   -9.0841   -5.4855  -27.0854 C   0  0  0  0  0  0  0  0  0  0  0  0
   -8.0553   -6.4641  -27.6418 C   0  0  0  0  0  0  0  0  0  0  0  0
   -7.6367   -6.0434  -28.8729 F   0  0  0  0  0  0  0  0  0  0  0  0
   -6.9465   -6.5387  -26.8424 F   0  0  0  0  0  0  0  0  0  0  0  0
   -9.6299   -5.8880  -25.7125 C   0  0  0  0  0  0  0  0  0  0  0  0
   -8.6637   -5.5941  -24.5662 C   0  0  0  0  0  0  0  0  0  0  0  0
   -8.6129   -2.8827  -21.6744 H   0  0  0  0  0  0  0  0  0  0  0  0
   -9.7456   -3.8617  -22.6330 H   0  0  0  0  0  0  0  0  0  0  0  0
   -7.6634   -1.1469  -23.9630 H   0  0  0  0  0  0  0  0  0  0  0  0
  -10.6099    1.6471  -24.6458 H   0  0  0  0  0  0  0  0  0  0  0  0
  -12.9081    1.2386  -24.0217 H   0  0  0  0  0  0  0  0  0  0  0  0
  -14.6440   -0.2136  -22.9893 H   0  0  0  0  0  0  0  0  0  0  0  0
  -14.0266   -2.5109  -22.2318 H   0  0  0  0  0  0  0  0  0  0  0  0
  -11.7188   -3.3071  -22.4027 H   0  0  0  0  0  0  0  0  0  0  0  0
   -6.6003   -4.3946  -26.1574 H   0  0  0  0  0  0  0  0  0  0  0  0
   -7.2561   -2.7865  -25.8619 H   0  0  0  0  0  0  0  0  0  0  0  0
   -8.1793   -3.7590  -28.0187 H   0  0  0  0  0  0  0  0  0  0  0  0
   -9.4227   -3.3758  -26.8099 H   0  0  0  0  0  0  0  0  0  0  0  0
   -9.9033   -5.5388  -27.8126 H   0  0  0  0  0  0  0  0  0  0  0  0
   -8.4281   -7.4909  -27.7563 H   0  0  0  0  0  0  0  0  0  0  0  0
  -10.5548   -5.3258  -25.5285 H   0  0  0  0  0  0  0  0  0  0  0  0
   -9.8878   -6.9540  -25.7180 H   0  0  0  0  0  0  0  0  0  0  0  0
   -7.8590   -6.3437  -24.5379 H   0  0  0  0  0  0  0  0  0  0  0  0
   -9.1981   -5.6601  -23.6133 H   0  0  0  0  0  0  0  0  0  0  0  0
  1  2  2  0
  2  3  1  0
  3  4  1  0
  4  5  2  0
  5  6  1  0
  6  7  2  0
  7  8  1  0
  8  9  2  0
  9 10  1  0
 10 11  2  0
 11 12  1  0
 12 13  2  0
  2 14  1  0
 14 15  1  0
 15 16  1  0
 16 17  1  0
 17 18  1  0
 18 19  1  0
 18 20  1  0
 17 21  1  0
 21 22  1  0
 13  4  1  0
 22 14  1  0
 13  8  1  0
  3 23  1  0
  3 24  1  0
  5 25  1  0
  7 26  1  0
  9 27  1  0
 10 28  1  0
 11 29  1  0
 12 30  1  0
 15 31  1  0
 15 32  1  0
 16 33  1  0
 16 34  1  0
 17 35  1  0
 18 36  1  0
 21 37  1  0
 21 38  1  0
 22 39  1  0
 22 40  1  0
M  END
