
     RDKit          3D

 40 42  0  0  0  0  0  0  0  0999 V2000
    7.0540   -1.9843   23.3652 O   0  0  0  0  0  0  0  0  0  0  0  0
    8.1736   -2.4364   23.5104 C   0  0  0  0  0  0  0  0  0  0  0  0
    9.3397   -2.0066   22.6194 C   0  0  0  0  0  0  0  0  0  0  0  0
    9.8794   -0.7136   23.2245 C   0  0  0  0  0  0  0  0  0  0  0  0
    8.9970    0.1715   23.8015 C   0  0  0  0  0  0  0  0  0  0  0  0
    9.3026    1.4110   24.2685 N   0  0  0  0  0  0  0  0  0  0  0  0
   10.5496    1.7850   24.1606 C   0  0  0  0  0  0  0  0  0  0  0  0
   11.5771    0.9698   23.6144 C   0  0  0  0  0  0  0  0  0  0  0  0
   12.9013    1.4511   23.4993 C   0  0  0  0  0  0  0  0  0  0  0  0
   13.8834    0.6633   22.9671 C   0  0  0  0  0  0  0  0  0  0  0  0
   13.5804   -0.6561   22.5632 C   0  0  0  0  0  0  0  0  0  0  0  0
   12.3028   -1.1491   22.6649 C   0  0  0  0  0  0  0  0  0  0  0  0
   11.2544   -0.3381   23.1772 C   0  0  0  0  0  0  0  0  0  0  0  0
    8.5222   -3.1815   24.6265 N   0  0  0  0  0  0  0  0  0  0  0  0
    7.9233   -2.7812   25.9000 C   0  0  0  0  0  0  0  0  0  0  0  0
    8.9876   -2.9212   26.9875 C   0  0  0  0  0  0  0  0  0  0  0  0
    9.5462   -4.3457   27.0528 C   0  0  0  0  0  0  0  0  0  0  0  0
    8.5560   -5.3504   27.6323 C   0  0  0  0  0  0  0  0  0  0  0  0
    8.1313   -4.9246   28.8595 F   0  0  0  0  0  0  0  0  0  0  0  0
    7.4451   -5.4766   26.8423 F   0  0  0  0  0  0  0  0  0  0  0  0
   10.0964   -4.7511   25.6825 C   0  0  0  0  0  0  0  0  0  0  0  0
    9.1128   -4.5097   24.5388 C   0  0  0  0  0  0  0  0  0  0  0  0
    8.9477   -1.8490   21.6045 H   0  0  0  0  0  0  0  0  0  0  0  0
   10.1204   -2.7722   22.5703 H   0  0  0  0  0  0  0  0  0  0  0  0
    7.9535   -0.1105   23.8720 H   0  0  0  0  0  0  0  0  0  0  0  0
   10.8050    2.7953   24.4885 H   0  0  0  0  0  0  0  0  0  0  0  0
   13.1118    2.4571   23.8542 H   0  0  0  0  0  0  0  0  0  0  0  0
   14.8905    1.0497   22.8324 H   0  0  0  0  0  0  0  0  0  0  0  0
   14.3487   -1.2797   22.1162 H   0  0  0  0  0  0  0  0  0  0  0  0
   12.0714   -2.1530   22.3167 H   0  0  0  0  0  0  0  0  0  0  0  0
    7.0195   -3.3572   26.1257 H   0  0  0  0  0  0  0  0  0  0  0  0
    7.6167   -1.7323   25.7998 H   0  0  0  0  0  0  0  0  0  0  0  0
    8.5879   -2.6369   27.9650 H   0  0  0  0  0  0  0  0  0  0  0  0
    9.8089   -2.2302   26.7412 H   0  0  0  0  0  0  0  0  0  0  0  0
   10.3716   -4.3586   27.7747 H   0  0  0  0  0  0  0  0  0  0  0  0
    8.9653   -6.3616   27.7604 H   0  0  0  0  0  0  0  0  0  0  0  0
   10.9998   -4.1601   25.4828 H   0  0  0  0  0  0  0  0  0  0  0  0
   10.3915   -5.8072   25.7032 H   0  0  0  0  0  0  0  0  0  0  0  0
    8.3347   -5.2873   24.5284 H   0  0  0  0  0  0  0  0  0  0  0  0
    9.6427   -4.5725   23.5832 H   0  0  0  0  0  0  0  0  0  0  0  0
  1  2  2  0
  2  3  1  0
  3  4  1  0
  4  5  2  0
  5  6  1  0
  6  7  2  0
  7  8  1  0
  8  9  2  0
  9 10  1  0
 10 11  2  0
 11 12  1  0
 12 13  2  0
  2 14  1  0
 14 15  1  0
 15 16  1  0
 16 17  1  0
 17 18  1  0
 18 19  1  0
 18 20  1  0
 17 21  1  0
 21 22  1  0
 13  4  1  0
 22 14  1  0
 13  8  1  0
  3 23  1  0
  3 24  1  0
  5 25  1  0
  7 26  1  0
  9 27  1  0
 10 28  1  0
 11 29  1  0
 12 30  1  0
 15 31  1  0
 15 32  1  0
 16 33  1  0
 16 34  1  0
 17 35  1  0
 18 36  1  0
 21 37  1  0
 21 38  1  0
 22 39  1  0
 22 40  1  0
M  END
$$$$
