
     RDKit          3D

 58 61  0  0  0  0  0  0  0  0999 V2000
   -4.7820   -3.0055  -22.4018 C   0  0  0  0  0  0  0  0  0  0  0  0
   -6.0650   -3.3459  -22.3359 C   0  0  0  0  0  0  0  0  0  0  0  0
   -7.0322   -3.0600  -21.2179 C   0  0  0  0  0  0  0  0  0  0  0  0
   -7.2912   -1.6266  -21.0610 N   0  0  0  0  0  0  0  0  0  0  0  0
   -8.2115   -0.9116  -21.8145 C   0  0  0  0  0  0  0  0  0  0  0  0
   -8.4912    0.2359  -21.5055 O   0  0  0  0  0  0  0  0  0  0  0  0
   -8.8462   -1.5177  -23.0879 C   0  0  2  0  0  0  0  0  0  0  0  0
   -8.2112   -0.8647  -24.3358 C   0  0  0  0  0  0  0  0  0  0  0  0
   -8.6900    0.4972  -24.5467 N   0  0  0  0  0  0  0  0  0  0  0  0
   -7.8320    1.4565  -25.2032 C   0  0  0  0  0  0  0  0  0  0  0  0
   -7.2885    2.6147  -24.3547 C   0  0  0  0  0  0  0  0  0  0  0  0
   -6.5929    3.4563  -24.9058 O   0  0  0  0  0  0  0  0  0  0  0  0
   -7.5879    2.6420  -23.0371 N   0  0  0  0  0  0  0  0  0  0  0  0
   -6.8914    3.5865  -22.1888 C   0  0  0  0  0  0  0  0  0  0  0  0
   -9.9826    0.8904  -24.3104 C   0  0  0  0  0  0  0  0  0  0  0  0
  -10.3752    2.0205  -24.5672 O   0  0  0  0  0  0  0  0  0  0  0  0
  -10.8732   -0.1288  -23.6810 C   0  0  0  0  0  0  0  0  0  0  0  0
  -12.2429    0.1337  -23.6326 C   0  0  0  0  0  0  0  0  0  0  0  0
  -13.1058   -0.7762  -23.0516 C   0  0  0  0  0  0  0  0  0  0  0  0
  -12.5783   -1.9513  -22.5156 C   0  0  0  0  0  0  0  0  0  0  0  0
  -13.6438   -3.0848  -21.7299 Cl  0  0  0  0  0  0  0  0  0  0  0  0
  -11.2165   -2.2149  -22.5550 C   0  0  0  0  0  0  0  0  0  0  0  0
  -10.3435   -1.2892  -23.1259 C   0  0  0  0  0  0  0  0  0  0  0  0
   -6.5762   -0.9400  -20.0268 C   0  0  0  0  0  0  0  0  0  0  0  0
   -6.8883   -1.2073  -18.7152 C   0  0  0  0  0  0  0  0  0  0  0  0
   -6.2065   -0.7455  -17.6411 N   0  0  0  0  0  0  0  0  0  0  0  0
   -5.1681    0.0196  -17.8718 C   0  0  0  0  0  0  0  0  0  0  0  0
   -4.7510    0.4192  -19.1742 C   0  0  0  0  0  0  0  0  0  0  0  0
   -3.6300    1.2737  -19.3643 C   0  0  0  0  0  0  0  0  0  0  0  0
   -3.2132    1.6036  -20.6231 C   0  0  0  0  0  0  0  0  0  0  0  0
   -3.8915    1.0942  -21.7521 C   0  0  0  0  0  0  0  0  0  0  0  0
   -5.0021    0.2925  -21.5929 C   0  0  0  0  0  0  0  0  0  0  0  0
   -5.4710   -0.0664  -20.2968 C   0  0  0  0  0  0  0  0  0  0  0  0
   -6.7788   -3.9725  -23.5365 C   0  0  0  0  0  0  0  0  0  0  0  0
   -7.9632   -4.3280  -23.3437 O   0  0  0  0  0  0  0  0  0  0  0  0
   -6.1229   -4.0454  -24.5928 O   0  0  0  0  0  0  0  0  0  0  0  0
   -4.3352   -2.4197  -21.5951 H   0  0  0  0  0  0  0  0  0  0  0  0
   -4.1804   -3.2586  -23.2725 H   0  0  0  0  0  0  0  0  0  0  0  0
   -7.9532   -3.5830  -21.4802 H   0  0  0  0  0  0  0  0  0  0  0  0
   -6.6503   -3.4286  -20.2630 H   0  0  0  0  0  0  0  0  0  0  0  0
   -8.6734   -2.5949  -23.1486 H   0  0  0  0  0  0  0  0  0  0  0  0
   -8.4315   -1.4979  -25.2058 H   0  0  0  0  0  0  0  0  0  0  0  0
   -7.1222   -0.8356  -24.2191 H   0  0  0  0  0  0  0  0  0  0  0  0
   -8.3582    1.9068  -26.0510 H   0  0  0  0  0  0  0  0  0  0  0  0
   -6.9616    0.9287  -25.6077 H   0  0  0  0  0  0  0  0  0  0  0  0
   -8.0843    1.8774  -22.5822 H   0  0  0  0  0  0  0  0  0  0  0  0
   -7.1912    3.4068  -21.1525 H   0  0  0  0  0  0  0  0  0  0  0  0
   -5.8054    3.4479  -22.2737 H   0  0  0  0  0  0  0  0  0  0  0  0
   -7.1173    4.6270  -22.4520 H   0  0  0  0  0  0  0  0  0  0  0  0
  -12.6052    1.0667  -24.0519 H   0  0  0  0  0  0  0  0  0  0  0  0
  -14.1723   -0.5826  -22.9931 H   0  0  0  0  0  0  0  0  0  0  0  0
  -10.8315   -3.1237  -22.0960 H   0  0  0  0  0  0  0  0  0  0  0  0
   -7.7393   -1.8490  -18.4963 H   0  0  0  0  0  0  0  0  0  0  0  0
   -4.6156    0.3898  -17.0086 H   0  0  0  0  0  0  0  0  0  0  0  0
   -3.1096    1.6456  -18.4844 H   0  0  0  0  0  0  0  0  0  0  0  0
   -2.3547    2.2558  -20.7634 H   0  0  0  0  0  0  0  0  0  0  0  0
   -3.5441    1.3486  -22.7502 H   0  0  0  0  0  0  0  0  0  0  0  0
   -5.5156   -0.0913  -22.4698 H   0  0  0  0  0  0  0  0  0  0  0  0
  1  2  2  0
  2  3  1  0
  3  4  1  0
  4  5  1  0
  5  6  2  0
  5  7  1  0
  7  8  1  0
  8  9  1  0
  9 10  1  0
 10 11  1  0
 11 12  2  0
 11 13  1  0
 13 14  1  0
  9 15  1  0
 15 16  2  0
 15 17  1  0
 17 18  2  0
 18 19  1  0
 19 20  2  0
 20 21  1  0
 20 22  1  0
 22 23  2  0
  4 24  1  0
 24 25  2  0
 25 26  1  0
 26 27  2  0
 27 28  1  0
 28 29  2  0
 29 30  1  0
 30 31  2  0
 31 32  1  0
 32 33  2  0
  2 34  1  0
 34 35  2  0
 34 36  1  0
 23  7  1  0
 33 24  1  0
 23 17  1  0
 33 28  1  0
  1 37  1  0
  1 38  1  0
  3 39  1  0
  3 40  1  0
  7 41  1  6
  8 42  1  0
  8 43  1  0
 10 44  1  0
 10 45  1  0
 13 46  1  0
 14 47  1  0
 14 48  1  0
 14 49  1  0
 18 50  1  0
 19 51  1  0
 22 52  1  0
 25 53  1  0
 27 54  1  0
 29 55  1  0
 30 56  1  0
 31 57  1  0
 32 58  1  0
M  CHG  1  36  -1
M  END
