
     RDKit          3D

 58 61  0  0  0  0  0  0  0  0999 V2000
    5.1857   -2.0134   22.4403 C   0  0  0  0  0  0  0  0  0  0  0  0
    6.4763   -2.3187   22.3543 C   0  0  0  0  0  0  0  0  0  0  0  0
    7.4128   -2.0254   21.2123 C   0  0  0  0  0  0  0  0  0  0  0  0
    7.6277   -0.5883   21.0258 N   0  0  0  0  0  0  0  0  0  0  0  0
    8.5420    0.1654   21.7482 C   0  0  0  0  0  0  0  0  0  0  0  0
    8.7828    1.3147   21.4141 O   0  0  0  0  0  0  0  0  0  0  0  0
    9.2187   -0.4002   23.0187 C   0  0  2  0  0  0  0  0  0  0  0  0
    8.5901    0.2566   24.2679 C   0  0  0  0  0  0  0  0  0  0  0  0
    9.0341    1.6349   24.4458 N   0  0  0  0  0  0  0  0  0  0  0  0
    8.1623    2.5811   25.1031 C   0  0  0  0  0  0  0  0  0  0  0  0
    7.5694    3.7085   24.2462 C   0  0  0  0  0  0  0  0  0  0  0  0
    6.8612    4.5398   24.7968 O   0  0  0  0  0  0  0  0  0  0  0  0
    7.8419    3.7210   22.9225 N   0  0  0  0  0  0  0  0  0  0  0  0
    7.1022    4.6305   22.0725 C   0  0  0  0  0  0  0  0  0  0  0  0
   10.3101    2.0601   24.1768 C   0  0  0  0  0  0  0  0  0  0  0  0
   10.6754    3.2051   24.4063 O   0  0  0  0  0  0  0  0  0  0  0  0
   11.2167    1.0554   23.5469 C   0  0  0  0  0  0  0  0  0  0  0  0
   12.5772    1.3553   23.4664 C   0  0  0  0  0  0  0  0  0  0  0  0
   13.4540    0.4600   22.8836 C   0  0  0  0  0  0  0  0  0  0  0  0
   12.9496   -0.7387   22.3785 C   0  0  0  0  0  0  0  0  0  0  0  0
   14.0312   -1.8555   21.5908 Cl  0  0  0  0  0  0  0  0  0  0  0  0
   11.5969   -1.0398   22.4499 C   0  0  0  0  0  0  0  0  0  0  0  0
   10.7094   -0.1290   23.0225 C   0  0  0  0  0  0  0  0  0  0  0  0
    6.8732    0.0596   19.9947 C   0  0  0  0  0  0  0  0  0  0  0  0
    7.1669   -0.2218   18.6818 C   0  0  0  0  0  0  0  0  0  0  0  0
    6.4512    0.2017   17.6140 N   0  0  0  0  0  0  0  0  0  0  0  0
    5.3962    0.9412   17.8526 C   0  0  0  0  0  0  0  0  0  0  0  0
    4.9937    1.3518   19.1562 C   0  0  0  0  0  0  0  0  0  0  0  0
    3.8528    2.1777   19.3543 C   0  0  0  0  0  0  0  0  0  0  0  0
    3.4517    2.5179   20.6155 C   0  0  0  0  0  0  0  0  0  0  0  0
    4.1664    2.0476   21.7391 C   0  0  0  0  0  0  0  0  0  0  0  0
    5.2959    1.2748   21.5711 C   0  0  0  0  0  0  0  0  0  0  0  0
    5.7492    0.9065   20.2721 C   0  0  0  0  0  0  0  0  0  0  0  0
    7.2312   -2.9038   23.5507 C   0  0  0  0  0  0  0  0  0  0  0  0
    8.4212   -3.2292   23.3401 O   0  0  0  0  0  0  0  0  0  0  0  0
    6.5986   -2.9765   24.6211 O   0  0  0  0  0  0  0  0  0  0  0  0
    4.7066   -1.4546   21.6330 H   0  0  0  0  0  0  0  0  0  0  0  0
    4.6089   -2.2679   23.3272 H   0  0  0  0  0  0  0  0  0  0  0  0
    8.3533   -2.5177   21.4647 H   0  0  0  0  0  0  0  0  0  0  0  0
    7.0227   -2.4214   20.2717 H   0  0  0  0  0  0  0  0  0  0  0  0
    9.0778   -1.4805   23.1012 H   0  0  0  0  0  0  0  0  0  0  0  0
    8.8455   -0.3548   25.1439 H   0  0  0  0  0  0  0  0  0  0  0  0
    7.4987    0.2530   24.1727 H   0  0  0  0  0  0  0  0  0  0  0  0
    8.6921    3.0609   25.9323 H   0  0  0  0  0  0  0  0  0  0  0  0
    7.3154    2.0363   25.5340 H   0  0  0  0  0  0  0  0  0  0  0  0
    8.3507    2.9628   22.4708 H   0  0  0  0  0  0  0  0  0  0  0  0
    7.3865    4.4411   21.0336 H   0  0  0  0  0  0  0  0  0  0  0  0
    6.0225    4.4630   22.1817 H   0  0  0  0  0  0  0  0  0  0  0  0
    7.3036    5.6814   22.3133 H   0  0  0  0  0  0  0  0  0  0  0  0
   12.9210    2.3054   23.8623 H   0  0  0  0  0  0  0  0  0  0  0  0
   14.5132    0.6824   22.8003 H   0  0  0  0  0  0  0  0  0  0  0  0
   11.2289   -1.9669   22.0143 H   0  0  0  0  0  0  0  0  0  0  0  0
    8.0313   -0.8431   18.4567 H   0  0  0  0  0  0  0  0  0  0  0  0
    4.8164    1.2805   16.9946 H   0  0  0  0  0  0  0  0  0  0  0  0
    3.3048    2.5193   18.4789 H   0  0  0  0  0  0  0  0  0  0  0  0
    2.5779    3.1480   20.7620 H   0  0  0  0  0  0  0  0  0  0  0  0
    3.8316    2.3097   22.7395 H   0  0  0  0  0  0  0  0  0  0  0  0
    5.8374    0.9210   22.4439 H   0  0  0  0  0  0  0  0  0  0  0  0
  1  2  2  0
  2  3  1  0
  3  4  1  0
  4  5  1  0
  5  6  2  0
  5  7  1  0
  7  8  1  0
  8  9  1  0
  9 10  1  0
 10 11  1  0
 11 12  2  0
 11 13  1  0
 13 14  1  0
  9 15  1  0
 15 16  2  0
 15 17  1  0
 17 18  2  0
 18 19  1  0
 19 20  2  0
 20 21  1  0
 20 22  1  0
 22 23  2  0
  4 24  1  0
 24 25  2  0
 25 26  1  0
 26 27  2  0
 27 28  1  0
 28 29  2  0
 29 30  1  0
 30 31  2  0
 31 32  1  0
 32 33  2  0
  2 34  1  0
 34 35  2  0
 34 36  1  0
 23  7  1  0
 33 24  1  0
 23 17  1  0
 33 28  1  0
  1 37  1  0
  1 38  1  0
  3 39  1  0
  3 40  1  0
  7 41  1  1
  8 42  1  0
  8 43  1  0
 10 44  1  0
 10 45  1  0
 13 46  1  0
 14 47  1  0
 14 48  1  0
 14 49  1  0
 18 50  1  0
 19 51  1  0
 22 52  1  0
 25 53  1  0
 27 54  1  0
 29 55  1  0
 30 56  1  0
 31 57  1  0
 32 58  1  0
M  CHG  1  36  -1
M  END
$$$$
