
     RDKit          3D

 54 57  0  0  0  0  0  0  0  0999 V2000
    9.4756    3.0613   23.2367 C   0  0  0  0  0  0  0  0  0  0  0  0
    8.7398    1.8884   23.5184 O   0  0  0  0  0  0  0  0  0  0  0  0
    9.3265    0.6648   23.3782 C   0  0  0  0  0  0  0  0  0  0  0  0
   10.6522    0.4865   22.9692 C   0  0  0  0  0  0  0  0  0  0  0  0
   11.1761   -0.7998   22.8568 C   0  0  0  0  0  0  0  0  0  0  0  0
   10.4003   -1.9084   23.1596 C   0  0  0  0  0  0  0  0  0  0  0  0
    9.0848   -1.7146   23.5631 C   0  0  0  0  0  0  0  0  0  0  0  0
    8.5174   -0.4512   23.6588 C   0  0  0  0  0  0  0  0  0  0  0  0
    7.0729   -0.3033   24.1167 C   0  0  2  0  0  0  0  0  0  0  0  0
    7.0019   -0.5886   25.6234 C   0  0  0  0  0  0  0  0  0  0  0  0
    5.5783   -0.6372   26.1672 C   0  0  2  0  0  0  0  0  0  0  0  0
    5.5445   -0.8985   27.6739 C   0  0  0  0  0  0  0  0  0  0  0  0
    4.8104   -1.7022   25.3976 C   0  0  0  0  0  0  0  0  0  0  0  0
    4.8203   -1.4008   23.9129 C   0  0  0  0  0  0  0  0  0  0  0  0
    6.1769   -1.2061   23.3926 N   0  0  0  0  0  0  0  0  0  0  0  0
    6.3233   -1.4893   22.0280 C   0  0  0  0  0  0  0  0  0  0  0  0
    5.9950   -2.5640   21.5744 O   0  0  0  0  0  0  0  0  0  0  0  0
    6.8450   -0.3940   21.0821 C   0  0  0  0  0  0  0  0  0  0  0  0
    5.8661   -0.1847   19.9504 C   0  0  0  0  0  0  0  0  0  0  0  0
    6.0414   -0.8105   18.7442 C   0  0  0  0  0  0  0  0  0  0  0  0
    5.2329   -0.6725   17.6603 N   0  0  0  0  0  0  0  0  0  0  0  0
    4.1720    0.0809   17.8031 C   0  0  0  0  0  0  0  0  0  0  0  0
    3.8198    0.7323   19.0170 C   0  0  0  0  0  0  0  0  0  0  0  0
    2.6289    1.4878   19.1492 C   0  0  0  0  0  0  0  0  0  0  0  0
    2.3030    2.0937   20.3293 C   0  0  0  0  0  0  0  0  0  0  0  0
    3.1841    2.0006   21.4279 C   0  0  0  0  0  0  0  0  0  0  0  0
    4.3520    1.2836   21.3256 C   0  0  0  0  0  0  0  0  0  0  0  0
    4.6960    0.6113   20.1224 C   0  0  0  0  0  0  0  0  0  0  0  0
    9.7978    3.1205   22.1893 H   0  0  0  0  0  0  0  0  0  0  0  0
    8.7834    3.8786   23.4301 H   0  0  0  0  0  0  0  0  0  0  0  0
   10.3536    3.1930   23.8827 H   0  0  0  0  0  0  0  0  0  0  0  0
   11.2820    1.3405   22.7313 H   0  0  0  0  0  0  0  0  0  0  0  0
   12.2033   -0.9402   22.5310 H   0  0  0  0  0  0  0  0  0  0  0  0
   10.8006   -2.9172   23.0763 H   0  0  0  0  0  0  0  0  0  0  0  0
    8.4760   -2.5818   23.7990 H   0  0  0  0  0  0  0  0  0  0  0  0
    6.7615    0.7367   23.9577 H   0  0  0  0  0  0  0  0  0  0  0  0
    7.5027   -1.5407   25.8448 H   0  0  0  0  0  0  0  0  0  0  0  0
    7.5786    0.1809   26.1411 H   0  0  0  0  0  0  0  0  0  0  0  0
    5.1000    0.3354   25.9761 H   0  0  0  0  0  0  0  0  0  0  0  0
    5.9981   -1.8690   27.9120 H   0  0  0  0  0  0  0  0  0  0  0  0
    6.0960   -0.1311   28.2303 H   0  0  0  0  0  0  0  0  0  0  0  0
    4.5150   -0.9189   28.0543 H   0  0  0  0  0  0  0  0  0  0  0  0
    5.2652   -2.6827   25.5818 H   0  0  0  0  0  0  0  0  0  0  0  0
    3.7756   -1.7623   25.7568 H   0  0  0  0  0  0  0  0  0  0  0  0
    4.3973   -2.2303   23.3450 H   0  0  0  0  0  0  0  0  0  0  0  0
    4.1880   -0.5163   23.7118 H   0  0  0  0  0  0  0  0  0  0  0  0
    7.7938   -0.7584   20.6701 H   0  0  0  0  0  0  0  0  0  0  0  0
    7.0438    0.5490   21.6074 H   0  0  0  0  0  0  0  0  0  0  0  0
    6.8853   -1.4836   18.5911 H   0  0  0  0  0  0  0  0  0  0  0  0
    3.5143    0.1844   16.9347 H   0  0  0  0  0  0  0  0  0  0  0  0
    1.9940    1.6045   18.2809 H   0  0  0  0  0  0  0  0  0  0  0  0
    1.3728    2.6510   20.4233 H   0  0  0  0  0  0  0  0  0  0  0  0
    2.9349    2.5143   22.3521 H   0  0  0  0  0  0  0  0  0  0  0  0
    5.0261    1.2454   22.1778 H   0  0  0  0  0  0  0  0  0  0  0  0
  1  2  1  0
  2  3  1  0
  3  4  2  0
  4  5  1  0
  5  6  2  0
  6  7  1  0
  7  8  2  0
  8  9  1  0
  9 10  1  0
 10 11  1  0
 11 12  1  0
 11 13  1  0
 13 14  1  0
 14 15  1  0
 15 16  1  0
 16 17  2  0
 16 18  1  0
 18 19  1  0
 19 20  2  0
 20 21  1  0
 21 22  2  0
 22 23  1  0
 23 24  2  0
 24 25  1  0
 25 26  2  0
 26 27  1  0
 27 28  2  0
  8  3  1  0
 15  9  1  0
 28 19  1  0
 28 23  1  0
  1 29  1  0
  1 30  1  0
  1 31  1  0
  4 32  1  0
  5 33  1  0
  6 34  1  0
  7 35  1  0
  9 36  1  1
 10 37  1  0
 10 38  1  0
 11 39  1  1
 12 40  1  0
 12 41  1  0
 12 42  1  0
 13 43  1  0
 13 44  1  0
 14 45  1  0
 14 46  1  0
 18 47  1  0
 18 48  1  0
 20 49  1  0
 22 50  1  0
 24 51  1  0
 25 52  1  0
 26 53  1  0
 27 54  1  0
M  END
$$$$
