
     RDKit          3D

 40 42  0  0  0  0  0  0  0  0999 V2000
   -9.3018   -0.8496  -21.0345 O   0  0  0  0  0  0  0  0  0  0  0  0
   -8.2413   -1.3758  -21.3131 C   0  0  0  0  0  0  0  0  0  0  0  0
   -6.9912   -0.4693  -21.3551 C   0  0  0  0  0  0  0  0  0  0  0  0
   -6.0982   -0.3420  -20.1094 C   0  0  0  0  0  0  0  0  0  0  0  0
   -6.5196   -0.7530  -18.8287 C   0  0  0  0  0  0  0  0  0  0  0  0
   -5.7424   -0.6685  -17.7325 N   0  0  0  0  0  0  0  0  0  0  0  0
   -4.5156   -0.1295  -17.8556 C   0  0  0  0  0  0  0  0  0  0  0  0
   -4.0217    0.3768  -19.0625 C   0  0  0  0  0  0  0  0  0  0  0  0
   -2.7554    0.9922  -19.1324 C   0  0  0  0  0  0  0  0  0  0  0  0
   -2.2568    1.4201  -20.3666 C   0  0  0  0  0  0  0  0  0  0  0  0
   -3.0253    1.2590  -21.5259 C   0  0  0  0  0  0  0  0  0  0  0  0
   -4.3151    0.7159  -21.4438 C   0  0  0  0  0  0  0  0  0  0  0  0
   -4.8202    0.2540  -20.2194 C   0  0  0  0  0  0  0  0  0  0  0  0
   -8.2707   -2.6610  -21.8634 N   0  0  0  0  0  0  0  0  0  0  0  0
   -9.5581   -3.2697  -22.1901 C   0  0  0  0  0  0  0  0  0  0  0  0
  -10.0997   -2.5554  -23.4379 C   0  0  0  0  0  0  0  0  0  0  0  0
   -9.0553   -2.4304  -24.5945 C   0  0  0  0  0  0  0  0  0  0  0  0
   -9.5324   -1.3744  -25.6217 C   0  0  0  0  0  0  0  0  0  0  0  0
  -10.8605   -1.5140  -25.8925 F   0  0  0  0  0  0  0  0  0  0  0  0
   -8.8453   -1.4923  -26.7897 F   0  0  0  0  0  0  0  0  0  0  0  0
   -7.6280   -2.0793  -24.0752 C   0  0  0  0  0  0  0  0  0  0  0  0
   -7.2765   -2.9657  -22.8731 C   0  0  0  0  0  0  0  0  0  0  0  0
   -7.3564    0.5285  -21.5975 H   0  0  0  0  0  0  0  0  0  0  0  0
   -6.3777   -0.8019  -22.1965 H   0  0  0  0  0  0  0  0  0  0  0  0
   -7.5397   -1.1105  -18.7023 H   0  0  0  0  0  0  0  0  0  0  0  0
   -3.8718   -0.1041  -16.9803 H   0  0  0  0  0  0  0  0  0  0  0  0
   -2.1522    1.1291  -18.2374 H   0  0  0  0  0  0  0  0  0  0  0  0
   -1.2674    1.8674  -20.4192 H   0  0  0  0  0  0  0  0  0  0  0  0
   -2.6279    1.5639  -22.4896 H   0  0  0  0  0  0  0  0  0  0  0  0
   -4.9238    0.6426  -22.3408 H   0  0  0  0  0  0  0  0  0  0  0  0
   -9.4431   -4.3376  -22.4072 H   0  0  0  0  0  0  0  0  0  0  0  0
  -10.2553   -3.1912  -21.3480 H   0  0  0  0  0  0  0  0  0  0  0  0
  -10.4062   -1.5508  -23.1373 H   0  0  0  0  0  0  0  0  0  0  0  0
  -10.9955   -3.0848  -23.7868 H   0  0  0  0  0  0  0  0  0  0  0  0
   -8.9981   -3.3979  -25.1035 H   0  0  0  0  0  0  0  0  0  0  0  0
   -9.3628   -0.3781  -25.2095 H   0  0  0  0  0  0  0  0  0  0  0  0
   -6.8814   -2.2334  -24.8638 H   0  0  0  0  0  0  0  0  0  0  0  0
   -7.6008   -1.0260  -23.7595 H   0  0  0  0  0  0  0  0  0  0  0  0
   -6.2698   -2.7795  -22.4996 H   0  0  0  0  0  0  0  0  0  0  0  0
   -7.3224   -4.0194  -23.1672 H   0  0  0  0  0  0  0  0  0  0  0  0
  1  2  2  0
  2  3  1  0
  3  4  1  0
  4  5  2  0
  5  6  1  0
  6  7  2  0
  7  8  1  0
  8  9  2  0
  9 10  1  0
 10 11  2  0
 11 12  1  0
 12 13  2  0
  2 14  1  0
 14 15  1  0
 15 16  1  0
 16 17  1  0
 17 18  1  0
 18 19  1  0
 18 20  1  0
 17 21  1  0
 21 22  1  0
 13  4  1  0
 22 14  1  0
 13  8  1  0
  3 23  1  0
  3 24  1  0
  5 25  1  0
  7 26  1  0
  9 27  1  0
 10 28  1  0
 11 29  1  0
 12 30  1  0
 15 31  1  0
 15 32  1  0
 16 33  1  0
 16 34  1  0
 17 35  1  0
 18 36  1  0
 21 37  1  0
 21 38  1  0
 22 39  1  0
 22 40  1  0
M  END
