
     RDKit          3D

 63 68  0  0  0  0  0  0  0  0999 V2000
   -7.0038    3.6332  -22.4919 C   0  0  0  0  0  0  0  0  0  0  0  0
   -7.7945    2.6996  -23.2711 N   0  0  0  0  0  0  0  0  0  0  0  0
   -7.5098    2.5317  -24.5807 C   0  0  0  0  0  0  0  0  0  0  0  0
   -6.7405    3.2444  -25.2107 O   0  0  0  0  0  0  0  0  0  0  0  0
   -8.1541    1.3540  -25.3196 C   0  0  0  0  0  0  0  0  0  0  0  0
   -8.9909    0.4664  -24.5526 N   0  0  0  0  0  0  0  0  0  0  0  0
   -8.5149   -0.8812  -24.2696 C   0  0  0  0  0  0  0  0  0  0  0  0
   -9.0812   -1.4224  -22.9343 C   0  0  2  0  0  0  0  0  0  0  0  0
   -8.4754   -0.5748  -21.7869 C   0  0  0  0  0  0  0  0  0  0  0  0
   -8.7816    0.5675  -21.4996 O   0  0  0  0  0  0  0  0  0  0  0  0
   -7.4990   -1.3103  -21.1568 N   0  0  0  0  0  0  0  0  0  0  0  0
   -6.6557   -0.8013  -20.1309 C   0  0  0  0  0  0  0  0  0  0  0  0
   -6.8913   -1.1462  -18.8228 C   0  0  0  0  0  0  0  0  0  0  0  0
   -6.1377   -0.7397  -17.7722 N   0  0  0  0  0  0  0  0  0  0  0  0
   -5.1115    0.0403  -18.0094 C   0  0  0  0  0  0  0  0  0  0  0  0
   -4.7636    0.4915  -19.3162 C   0  0  0  0  0  0  0  0  0  0  0  0
   -3.6688    1.3696  -19.5331 C   0  0  0  0  0  0  0  0  0  0  0  0
   -3.3247    1.7619  -20.7966 C   0  0  0  0  0  0  0  0  0  0  0  0
   -4.0615    1.2873  -21.9008 C   0  0  0  0  0  0  0  0  0  0  0  0
   -5.1441    0.4597  -21.7200 C   0  0  0  0  0  0  0  0  0  0  0  0
   -5.5324    0.0414  -20.4158 C   0  0  0  0  0  0  0  0  0  0  0  0
   -7.2367   -2.5722  -21.8205 C   0  0  0  0  0  0  0  0  0  0  0  0
   -8.5529   -2.8335  -22.5600 C   0  0  2  0  0  0  0  0  0  0  0  0
   -8.4270   -3.8578  -23.6984 C   0  0  0  0  0  0  0  0  0  0  0  0
   -9.7016   -4.2777  -24.2524 N   0  0  0  0  0  0  0  0  0  0  0  0
  -10.5421   -5.1782  -23.6955 C   0  0  0  0  0  0  0  0  0  0  0  0
  -11.6868   -5.2014  -24.4658 C   0  0  0  0  0  0  0  0  0  0  0  0
  -11.4324   -4.2322  -25.4715 C   0  0  0  0  0  0  0  0  0  0  0  0
  -10.2336   -3.6795  -25.3270 N   0  0  0  0  0  0  0  0  0  0  0  0
  -10.5875   -1.2793  -23.0344 C   0  0  0  0  0  0  0  0  0  0  0  0
  -11.4726   -2.2113  -22.4925 C   0  0  0  0  0  0  0  0  0  0  0  0
  -12.8302   -1.9535  -22.4599 C   0  0  0  0  0  0  0  0  0  0  0  0
  -13.8669   -3.0924  -21.6344 Cl  0  0  0  0  0  0  0  0  0  0  0  0
  -13.3717   -0.7950  -23.0098 C   0  0  0  0  0  0  0  0  0  0  0  0
  -12.5099    0.1148  -23.5920 C   0  0  0  0  0  0  0  0  0  0  0  0
  -11.1392   -0.1356  -23.6241 C   0  0  0  0  0  0  0  0  0  0  0  0
  -10.2633    0.8857  -24.2715 C   0  0  0  0  0  0  0  0  0  0  0  0
  -10.6529    2.0236  -24.5010 O   0  0  0  0  0  0  0  0  0  0  0  0
   -7.1381    3.3831  -21.4384 H   0  0  0  0  0  0  0  0  0  0  0  0
   -7.3059    4.6733  -22.6490 H   0  0  0  0  0  0  0  0  0  0  0  0
   -5.9405    3.5497  -22.7450 H   0  0  0  0  0  0  0  0  0  0  0  0
   -8.3736    2.0320  -22.7673 H   0  0  0  0  0  0  0  0  0  0  0  0
   -7.3339    0.7734  -25.7595 H   0  0  0  0  0  0  0  0  0  0  0  0
   -8.7299    1.7725  -26.1488 H   0  0  0  0  0  0  0  0  0  0  0  0
   -7.4209   -0.8604  -24.2118 H   0  0  0  0  0  0  0  0  0  0  0  0
   -8.8104   -1.5524  -25.0834 H   0  0  0  0  0  0  0  0  0  0  0  0
   -7.7615   -1.7480  -18.5661 H   0  0  0  0  0  0  0  0  0  0  0  0
   -4.5271    0.3861  -17.1528 H   0  0  0  0  0  0  0  0  0  0  0  0
   -3.1243    1.7371  -18.6718 H   0  0  0  0  0  0  0  0  0  0  0  0
   -2.4987    2.4510  -20.9568 H   0  0  0  0  0  0  0  0  0  0  0  0
   -3.7860    1.6033  -22.9024 H   0  0  0  0  0  0  0  0  0  0  0  0
   -5.7084    0.1171  -22.5812 H   0  0  0  0  0  0  0  0  0  0  0  0
   -6.3984   -2.4935  -22.5291 H   0  0  0  0  0  0  0  0  0  0  0  0
   -6.9808   -3.3501  -21.0969 H   0  0  0  0  0  0  0  0  0  0  0  0
   -9.2457   -3.2192  -21.8061 H   0  0  0  0  0  0  0  0  0  0  0  0
   -7.8537   -3.4598  -24.5363 H   0  0  0  0  0  0  0  0  0  0  0  0
   -7.9258   -4.7615  -23.3394 H   0  0  0  0  0  0  0  0  0  0  0  0
  -10.2405   -5.7015  -22.7936 H   0  0  0  0  0  0  0  0  0  0  0  0
  -12.5892   -5.7821  -24.2886 H   0  0  0  0  0  0  0  0  0  0  0  0
  -12.0687   -3.8831  -26.2756 H   0  0  0  0  0  0  0  0  0  0  0  0
  -11.1192   -3.1155  -22.0173 H   0  0  0  0  0  0  0  0  0  0  0  0
  -14.4365   -0.5992  -22.9217 H   0  0  0  0  0  0  0  0  0  0  0  0
  -12.8701    1.0497  -24.0107 H   0  0  0  0  0  0  0  0  0  0  0  0
  1  2  1  0
  2  3  1  0
  3  4  2  0
  3  5  1  0
  5  6  1  0
  6  7  1  0
  8  7  1  6
  8  9  1  0
  9 10  2  0
  9 11  1  0
 11 12  1  0
 12 13  2  0
 13 14  1  0
 14 15  2  0
 15 16  1  0
 16 17  2  0
 17 18  1  0
 18 19  2  0
 19 20  1  0
 20 21  2  0
 11 22  1  0
 22 23  1  0
 23 24  1  0
 24 25  1  0
 25 26  1  0
 26 27  2  0
 27 28  1  0
 28 29  2  0
  8 30  1  0
 30 31  2  0
 31 32  1  0
 32 33  1  0
 32 34  2  0
 34 35  1  0
 35 36  2  0
 36 37  1  0
 37 38  2  0
 37  6  1  0
 23  8  1  0
 29 25  1  0
 36 30  1  0
 21 12  1  0
 21 16  1  0
  1 39  1  0
  1 40  1  0
  1 41  1  0
  2 42  1  0
  5 43  1  0
  5 44  1  0
  7 45  1  0
  7 46  1  0
 13 47  1  0
 15 48  1  0
 17 49  1  0
 18 50  1  0
 19 51  1  0
 20 52  1  0
 22 53  1  0
 22 54  1  0
 23 55  1  1
 24 56  1  0
 24 57  1  0
 26 58  1  0
 27 59  1  0
 28 60  1  0
 31 61  1  0
 34 62  1  0
 35 63  1  0
M  END
