
     RDKit          3D

 63 68  0  0  0  0  0  0  0  0999 V2000
    7.2744    4.6549   22.3860 C   0  0  0  0  0  0  0  0  0  0  0  0
    8.1078    3.7563   23.1620 N   0  0  0  0  0  0  0  0  0  0  0  0
    7.8565    3.6019   24.4800 C   0  0  0  0  0  0  0  0  0  0  0  0
    7.0814    4.3031   25.1158 O   0  0  0  0  0  0  0  0  0  0  0  0
    8.5495    2.4546   25.2228 C   0  0  0  0  0  0  0  0  0  0  0  0
    9.3939    1.5782   24.4513 N   0  0  0  0  0  0  0  0  0  0  0  0
    8.9499    0.2135   24.2001 C   0  0  0  0  0  0  0  0  0  0  0  0
    9.5019   -0.3334   22.8611 C   0  0  2  0  0  0  0  0  0  0  0  0
    8.8478    0.4783   21.7144 C   0  0  0  0  0  0  0  0  0  0  0  0
    9.1155    1.6239   21.4025 O   0  0  0  0  0  0  0  0  0  0  0  0
    7.8789   -0.2941   21.1177 N   0  0  0  0  0  0  0  0  0  0  0  0
    6.9995    0.1747   20.1029 C   0  0  0  0  0  0  0  0  0  0  0  0
    7.2162   -0.1848   18.7955 C   0  0  0  0  0  0  0  0  0  0  0  0
    6.4288    0.1836   17.7557 N   0  0  0  0  0  0  0  0  0  0  0  0
    5.3865    0.9386   18.0034 C   0  0  0  0  0  0  0  0  0  0  0  0
    5.0546    1.4012   19.3104 C   0  0  0  0  0  0  0  0  0  0  0  0
    3.9406    2.2520   19.5378 C   0  0  0  0  0  0  0  0  0  0  0  0
    3.6132    2.6551   20.8023 C   0  0  0  0  0  0  0  0  0  0  0  0
    4.3869    2.2191   21.8972 C   0  0  0  0  0  0  0  0  0  0  0  0
    5.4881    1.4190   21.7053 C   0  0  0  0  0  0  0  0  0  0  0  0
    5.8595    0.9904   20.3995 C   0  0  0  0  0  0  0  0  0  0  0  0
    7.6666   -1.5518   21.8067 C   0  0  0  0  0  0  0  0  0  0  0  0
    9.0054   -1.7645   22.5208 C   0  0  2  0  0  0  0  0  0  0  0  0
    8.9331   -2.7733   23.6775 C   0  0  0  0  0  0  0  0  0  0  0  0
   10.2307   -3.1487   24.2096 N   0  0  0  0  0  0  0  0  0  0  0  0
   11.0838   -4.0345   23.6483 C   0  0  0  0  0  0  0  0  0  0  0  0
   12.2452   -4.0134   24.3933 C   0  0  0  0  0  0  0  0  0  0  0  0
   11.9857   -3.0355   25.3891 C   0  0  0  0  0  0  0  0  0  0  0  0
   10.7690   -2.5186   25.2626 N   0  0  0  0  0  0  0  0  0  0  0  0
   11.0055   -0.1471   22.9255 C   0  0  0  0  0  0  0  0  0  0  0  0
   11.9043   -1.0629   22.3787 C   0  0  0  0  0  0  0  0  0  0  0  0
   13.2531   -0.7681   22.3119 C   0  0  0  0  0  0  0  0  0  0  0  0
   14.3031   -1.8911   21.4815 Cl  0  0  0  0  0  0  0  0  0  0  0  0
   13.7738    0.4137   22.8315 C   0  0  0  0  0  0  0  0  0  0  0  0
   12.8997    1.3086   23.4184 C   0  0  0  0  0  0  0  0  0  0  0  0
   11.5376    1.0209   23.4849 C   0  0  0  0  0  0  0  0  0  0  0  0
   10.6477    2.0279   24.1355 C   0  0  0  0  0  0  0  0  0  0  0  0
   11.0101    3.1798   24.3385 O   0  0  0  0  0  0  0  0  0  0  0  0
    7.3927    4.3915   21.3338 H   0  0  0  0  0  0  0  0  0  0  0  0
    7.5506    5.7053   22.5201 H   0  0  0  0  0  0  0  0  0  0  0  0
    6.2197    4.5461   22.6640 H   0  0  0  0  0  0  0  0  0  0  0  0
    8.6943    3.0969   22.6559 H   0  0  0  0  0  0  0  0  0  0  0  0
    7.7557    1.8587   25.6898 H   0  0  0  0  0  0  0  0  0  0  0  0
    9.1312    2.9023   26.0323 H   0  0  0  0  0  0  0  0  0  0  0  0
    7.8547    0.2031   24.1663 H   0  0  0  0  0  0  0  0  0  0  0  0
    9.2817   -0.4359   25.0175 H   0  0  0  0  0  0  0  0  0  0  0  0
    8.0971   -0.7663   18.5289 H   0  0  0  0  0  0  0  0  0  0  0  0
    4.7741    1.2541   17.1547 H   0  0  0  0  0  0  0  0  0  0  0  0
    3.3674    2.5903   18.6831 H   0  0  0  0  0  0  0  0  0  0  0  0
    2.7719    3.3236   20.9700 H   0  0  0  0  0  0  0  0  0  0  0  0
    4.1245    2.5436   22.8996 H   0  0  0  0  0  0  0  0  0  0  0  0
    6.0804    1.1061   22.5590 H   0  0  0  0  0  0  0  0  0  0  0  0
    6.8420   -1.4848   22.5324 H   0  0  0  0  0  0  0  0  0  0  0  0
    7.4169   -2.3481   21.1012 H   0  0  0  0  0  0  0  0  0  0  0  0
    9.6922   -2.1431   21.7578 H   0  0  0  0  0  0  0  0  0  0  0  0
    8.3672   -2.3777   24.5217 H   0  0  0  0  0  0  0  0  0  0  0  0
    8.4497   -3.6962   23.3439 H   0  0  0  0  0  0  0  0  0  0  0  0
   10.7774   -4.5805   22.7616 H   0  0  0  0  0  0  0  0  0  0  0  0
   13.1595   -4.5717   24.2051 H   0  0  0  0  0  0  0  0  0  0  0  0
   12.6293   -2.6559   26.1733 H   0  0  0  0  0  0  0  0  0  0  0  0
   11.5662   -1.9841   21.9257 H   0  0  0  0  0  0  0  0  0  0  0  0
   14.8305    0.6375   22.7167 H   0  0  0  0  0  0  0  0  0  0  0  0
   13.2425    2.2598   23.8143 H   0  0  0  0  0  0  0  0  0  0  0  0
  1  2  1  0
  2  3  1  0
  3  4  2  0
  3  5  1  0
  5  6  1  0
  6  7  1  0
  8  7  1  1
  8  9  1  0
  9 10  2  0
  9 11  1  0
 11 12  1  0
 12 13  2  0
 13 14  1  0
 14 15  2  0
 15 16  1  0
 16 17  2  0
 17 18  1  0
 18 19  2  0
 19 20  1  0
 20 21  2  0
 11 22  1  0
 22 23  1  0
 23 24  1  0
 24 25  1  0
 25 26  1  0
 26 27  2  0
 27 28  1  0
 28 29  2  0
  8 30  1  0
 30 31  2  0
 31 32  1  0
 32 33  1  0
 32 34  2  0
 34 35  1  0
 35 36  2  0
 36 37  1  0
 37 38  2  0
 37  6  1  0
 23  8  1  0
 29 25  1  0
 36 30  1  0
 21 12  1  0
 21 16  1  0
  1 39  1  0
  1 40  1  0
  1 41  1  0
  2 42  1  0
  5 43  1  0
  5 44  1  0
  7 45  1  0
  7 46  1  0
 13 47  1  0
 15 48  1  0
 17 49  1  0
 18 50  1  0
 19 51  1  0
 20 52  1  0
 22 53  1  0
 22 54  1  0
 23 55  1  6
 24 56  1  0
 24 57  1  0
 26 58  1  0
 27 59  1  0
 28 60  1  0
 31 61  1  0
 34 62  1  0
 35 63  1  0
M  END
$$$$
