
     RDKit          3D

 40 42  0  0  0  0  0  0  0  0999 V2000
   -6.7033   -2.9694  -23.4345 O   0  0  0  0  0  0  0  0  0  0  0  0
   -7.8045   -3.4616  -23.5718 C   0  0  0  0  0  0  0  0  0  0  0  0
   -8.9867   -3.0682  -22.6852 C   0  0  0  0  0  0  0  0  0  0  0  0
   -9.5739   -1.8085  -23.3117 C   0  0  0  0  0  0  0  0  0  0  0  0
   -8.7198   -0.8962  -23.8901 C   0  0  0  0  0  0  0  0  0  0  0  0
   -9.0605    0.3216  -24.3765 N   0  0  0  0  0  0  0  0  0  0  0  0
  -10.3228    0.6545  -24.2913 C   0  0  0  0  0  0  0  0  0  0  0  0
  -11.3273   -0.1931  -23.7525 C   0  0  0  0  0  0  0  0  0  0  0  0
  -12.6644    0.2503  -23.6492 C   0  0  0  0  0  0  0  0  0  0  0  0
  -13.6317   -0.5703  -23.1294 C   0  0  0  0  0  0  0  0  0  0  0  0
  -13.2810   -1.8713  -22.6998 C   0  0  0  0  0  0  0  0  0  0  0  0
  -11.9870   -2.3156  -22.7742 C   0  0  0  0  0  0  0  0  0  0  0  0
  -10.9581   -1.4745  -23.2779 C   0  0  0  0  0  0  0  0  0  0  0  0
   -8.1204   -4.2404  -24.6746 N   0  0  0  0  0  0  0  0  0  0  0  0
   -7.5218   -3.8489  -25.9487 C   0  0  0  0  0  0  0  0  0  0  0  0
   -8.5716   -4.0398  -27.0418 C   0  0  0  0  0  0  0  0  0  0  0  0
   -9.0846   -5.4822  -27.0892 C   0  0  0  0  0  0  0  0  0  0  0  0
   -8.0441   -6.4487  -27.6528 C   0  0  0  0  0  0  0  0  0  0  0  0
   -6.9738   -6.6033  -26.8422 F   0  0  0  0  0  0  0  0  0  0  0  0
   -7.5673   -6.0247  -28.8408 F   0  0  0  0  0  0  0  0  0  0  0  0
   -8.5518   -7.6800  -27.8526 F   0  0  0  0  0  0  0  0  0  0  0  0
   -9.6201   -5.8975  -25.7139 C   0  0  0  0  0  0  0  0  0  0  0  0
   -8.6616   -5.5861  -24.5642 C   0  0  0  0  0  0  0  0  0  0  0  0
   -8.5965   -2.8766  -21.6765 H   0  0  0  0  0  0  0  0  0  0  0  0
   -9.7284   -3.8709  -22.6145 H   0  0  0  0  0  0  0  0  0  0  0  0
   -7.6692   -1.1368  -23.9596 H   0  0  0  0  0  0  0  0  0  0  0  0
  -10.6079    1.6422  -24.6452 H   0  0  0  0  0  0  0  0  0  0  0  0
  -12.9055    1.2400  -24.0270 H   0  0  0  0  0  0  0  0  0  0  0  0
  -14.6509   -0.2124  -23.0122 H   0  0  0  0  0  0  0  0  0  0  0  0
  -14.0410   -2.5179  -22.2649 H   0  0  0  0  0  0  0  0  0  0  0  0
  -11.7373   -3.3164  -22.4263 H   0  0  0  0  0  0  0  0  0  0  0  0
   -6.6046   -4.4093  -26.1580 H   0  0  0  0  0  0  0  0  0  0  0  0
   -7.2390   -2.7924  -25.8623 H   0  0  0  0  0  0  0  0  0  0  0  0
   -8.1801   -3.7469  -28.0202 H   0  0  0  0  0  0  0  0  0  0  0  0
   -9.4171   -3.3785  -26.8084 H   0  0  0  0  0  0  0  0  0  0  0  0
   -9.9055   -5.5466  -27.8153 H   0  0  0  0  0  0  0  0  0  0  0  0
  -10.5509   -5.3486  -25.5300 H   0  0  0  0  0  0  0  0  0  0  0  0
   -9.8637   -6.9649  -25.7209 H   0  0  0  0  0  0  0  0  0  0  0  0
   -9.1966   -5.6475  -23.6122 H   0  0  0  0  0  0  0  0  0  0  0  0
   -7.8546   -6.3313  -24.5291 H   0  0  0  0  0  0  0  0  0  0  0  0
  1  2  2  0
  2  3  1  0
  3  4  1  0
  4  5  2  0
  5  6  1  0
  6  7  2  0
  7  8  1  0
  8  9  2  0
  9 10  1  0
 10 11  2  0
 11 12  1  0
 12 13  2  0
  2 14  1  0
 14 15  1  0
 15 16  1  0
 16 17  1  0
 17 18  1  0
 18 19  1  0
 18 20  1  0
 18 21  1  0
 17 22  1  0
 22 23  1  0
 13  4  1  0
 23 14  1  0
 13  8  1  0
  3 24  1  0
  3 25  1  0
  5 26  1  0
  7 27  1  0
  9 28  1  0
 10 29  1  0
 11 30  1  0
 12 31  1  0
 15 32  1  0
 15 33  1  0
 16 34  1  0
 16 35  1  0
 17 36  1  0
 22 37  1  0
 22 38  1  0
 23 39  1  0
 23 40  1  0
M  END
