
     RDKit          3D

 70 75  0  0  0  0  0  0  0  0999 V2000
    5.4210    2.7589   26.2490 C   0  0  0  0  0  0  0  0  0  0  0  0
    6.6571    3.5378   26.0157 N   0  0  0  0  0  0  0  0  0  0  0  0
    6.5497    4.4786   24.8671 C   0  0  0  0  0  0  0  0  0  0  0  0
    6.6237    3.7153   23.5415 C   0  0  0  0  0  0  0  0  0  0  0  0
    7.8182    2.8722   23.4663 N   0  0  0  0  0  0  0  0  0  0  0  0
    7.7670    1.4226   23.5940 C   0  0  0  0  0  0  0  0  0  0  0  0
    8.4872    0.7089   22.4091 C   0  0  2  0  0  0  0  0  0  0  0  0
    7.6684    0.9735   21.1247 C   0  0  0  0  0  0  0  0  0  0  0  0
    7.6474    1.9745   20.4435 O   0  0  0  0  0  0  0  0  0  0  0  0
    6.9127   -0.1478   20.8616 N   0  0  0  0  0  0  0  0  0  0  0  0
    5.8980   -0.1084   19.8790 C   0  0  0  0  0  0  0  0  0  0  0  0
    6.0579   -0.7798   18.6964 C   0  0  0  0  0  0  0  0  0  0  0  0
    5.2241   -0.6680   17.6348 N   0  0  0  0  0  0  0  0  0  0  0  0
    4.1698    0.1034   17.7717 C   0  0  0  0  0  0  0  0  0  0  0  0
    3.8339    0.7792   18.9794 C   0  0  0  0  0  0  0  0  0  0  0  0
    2.6565    1.5645   19.1046 C   0  0  0  0  0  0  0  0  0  0  0  0
    2.3234    2.1401   20.3004 C   0  0  0  0  0  0  0  0  0  0  0  0
    3.1655    1.9814   21.4241 C   0  0  0  0  0  0  0  0  0  0  0  0
    4.3284    1.2587   21.3187 C   0  0  0  0  0  0  0  0  0  0  0  0
    4.7033    0.6522   20.0844 C   0  0  0  0  0  0  0  0  0  0  0  0
    7.1373   -1.2456   21.7727 C   0  0  0  0  0  0  0  0  0  0  0  0
    8.4268   -0.8389   22.4962 C   0  0  2  0  0  0  0  0  0  0  0  0
    8.5610   -1.5068   23.8661 C   0  0  0  0  0  0  0  0  0  0  0  0
    9.9025   -1.6392   24.2756 O   0  0  0  0  0  0  0  0  0  0  0  0
   10.4163   -0.6277   25.1178 C   0  0  0  0  0  0  0  0  0  0  0  0
   11.8654   -0.9688   25.4192 C   0  0  0  0  0  0  0  0  0  0  0  0
   12.1931   -2.4148   25.8303 C   0  0  0  0  0  0  0  0  0  0  0  0
   13.0610   -2.5944   24.7034 O   0  0  0  0  0  0  0  0  0  0  0  0
   12.7709   -1.2812   24.2163 C   0  0  0  0  0  0  0  0  0  0  0  0
    9.8857    1.2791   22.3118 C   0  0  0  0  0  0  0  0  0  0  0  0
   11.0068    0.5264   21.9491 C   0  0  0  0  0  0  0  0  0  0  0  0
   12.2488    1.1393   21.8489 C   0  0  0  0  0  0  0  0  0  0  0  0
   13.6359    0.1560   21.4537 Cl  0  0  0  0  0  0  0  0  0  0  0  0
   12.4370    2.5060   22.0529 C   0  0  0  0  0  0  0  0  0  0  0  0
   11.3322    3.2451   22.4201 C   0  0  0  0  0  0  0  0  0  0  0  0
   10.0885    2.6372   22.5878 C   0  0  0  0  0  0  0  0  0  0  0  0
    8.9774    3.5021   23.0938 C   0  0  0  0  0  0  0  0  0  0  0  0
    9.1172    4.7212   23.1703 O   0  0  0  0  0  0  0  0  0  0  0  0
    4.5436    3.4075   26.2008 H   0  0  0  0  0  0  0  0  0  0  0  0
    5.2977    1.9866   25.4888 H   0  0  0  0  0  0  0  0  0  0  0  0
    5.4517    2.2752   27.2222 H   0  0  0  0  0  0  0  0  0  0  0  0
    7.4312    2.8913   25.7587 H   0  0  0  0  0  0  0  0  0  0  0  0
    6.9171    4.0465   26.8788 H   0  0  0  0  0  0  0  0  0  0  0  0
    5.6152    5.0351   24.9398 H   0  0  0  0  0  0  0  0  0  0  0  0
    7.3749    5.1796   24.9230 H   0  0  0  0  0  0  0  0  0  0  0  0
    5.7291    3.0996   23.3640 H   0  0  0  0  0  0  0  0  0  0  0  0
    6.6887    4.4297   22.7194 H   0  0  0  0  0  0  0  0  0  0  0  0
    6.7213    1.0949   23.6677 H   0  0  0  0  0  0  0  0  0  0  0  0
    8.2694    1.1141   24.5230 H   0  0  0  0  0  0  0  0  0  0  0  0
    6.9203   -1.4296   18.5524 H   0  0  0  0  0  0  0  0  0  0  0  0
    3.5006    0.1977   16.9136 H   0  0  0  0  0  0  0  0  0  0  0  0
    2.0376    1.7155   18.2264 H   0  0  0  0  0  0  0  0  0  0  0  0
    1.4097    2.7222   20.3933 H   0  0  0  0  0  0  0  0  0  0  0  0
    2.8921    2.4439   22.3693 H   0  0  0  0  0  0  0  0  0  0  0  0
    4.9753    1.1444   22.1837 H   0  0  0  0  0  0  0  0  0  0  0  0
    6.2976   -1.3778   22.4725 H   0  0  0  0  0  0  0  0  0  0  0  0
    7.2612   -2.1810   21.2173 H   0  0  0  0  0  0  0  0  0  0  0  0
    9.2462   -1.1922   21.8708 H   0  0  0  0  0  0  0  0  0  0  0  0
    7.9426   -0.9853   24.6164 H   0  0  0  0  0  0  0  0  0  0  0  0
    8.1713   -2.5295   23.7912 H   0  0  0  0  0  0  0  0  0  0  0  0
   10.3647    0.3534   24.6207 H   0  0  0  0  0  0  0  0  0  0  0  0
    9.8309   -0.5642   26.0519 H   0  0  0  0  0  0  0  0  0  0  0  0
   12.2841   -0.2187   26.0947 H   0  0  0  0  0  0  0  0  0  0  0  0
   12.7394   -2.5363   26.7736 H   0  0  0  0  0  0  0  0  0  0  0  0
   11.3429   -3.1039   25.8002 H   0  0  0  0  0  0  0  0  0  0  0  0
   12.2472   -1.3261   23.2576 H   0  0  0  0  0  0  0  0  0  0  0  0
   13.6724   -0.6663   24.1048 H   0  0  0  0  0  0  0  0  0  0  0  0
   10.9430   -0.5292   21.7055 H   0  0  0  0  0  0  0  0  0  0  0  0
   13.4226    2.9615   21.9857 H   0  0  0  0  0  0  0  0  0  0  0  0
   11.4112    4.3127   22.5743 H   0  0  0  0  0  0  0  0  0  0  0  0
  1  2  1  0
  2  3  1  0
  3  4  1  0
  4  5  1  0
  5  6  1  0
  7  6  1  1
  7  8  1  0
  8  9  2  0
  8 10  1  0
 10 11  1  0
 11 12  2  0
 12 13  1  0
 13 14  2  0
 14 15  1  0
 15 16  2  0
 16 17  1  0
 17 18  2  0
 18 19  1  0
 19 20  2  0
 10 21  1  0
 21 22  1  0
 22 23  1  0
 23 24  1  0
 24 25  1  0
 25 26  1  0
 26 27  1  0
 27 28  1  0
 28 29  1  0
  7 30  1  0
 30 31  2  0
 31 32  1  0
 32 33  1  0
 32 34  2  0
 34 35  1  0
 35 36  2  0
 36 37  1  0
 37 38  2  0
 37  5  1  0
 22  7  1  0
 29 26  1  0
 36 30  1  0
 20 11  1  0
 20 15  1  0
  1 39  1  0
  1 40  1  0
  1 41  1  0
  2 42  1  0
  2 43  1  0
  3 44  1  0
  3 45  1  0
  4 46  1  0
  4 47  1  0
  6 48  1  0
  6 49  1  0
 12 50  1  0
 14 51  1  0
 16 52  1  0
 17 53  1  0
 18 54  1  0
 19 55  1  0
 21 56  1  0
 21 57  1  0
 22 58  1  6
 23 59  1  0
 23 60  1  0
 25 61  1  0
 25 62  1  0
 26 63  1  0
 27 64  1  0
 27 65  1  0
 29 66  1  0
 29 67  1  0
 31 68  1  0
 34 69  1  0
 35 70  1  0
M  CHG  1   2   1
M  END
$$$$
