
     RDKit          3D

 41 43  0  0  0  0  0  0  0  0999 V2000
  -12.8759   -3.7089  -23.8163 C   0  0  0  0  0  0  0  0  0  0  0  0
  -11.6563   -2.7953  -23.8654 C   0  0  1  0  0  0  0  0  0  0  0  0
  -12.0194   -1.3977  -23.4117 C   0  0  0  0  0  0  0  0  0  0  0  0
  -11.1939   -0.3559  -23.4365 C   0  0  0  0  0  0  0  0  0  0  0  0
   -9.7558   -0.4685  -23.8846 C   0  0  0  0  0  0  0  0  0  0  0  0
   -8.9290   -1.4222  -23.1383 N   0  0  0  0  0  0  0  0  0  0  0  0
   -8.4867   -0.9911  -21.9037 C   0  0  0  0  0  0  0  0  0  0  0  0
   -8.9889   -0.0190  -21.3793 O   0  0  0  0  0  0  0  0  0  0  0  0
   -7.3010   -1.7579  -21.3022 C   0  0  0  0  0  0  0  0  0  0  0  0
   -6.5247   -1.0272  -20.2344 C   0  0  0  0  0  0  0  0  0  0  0  0
   -6.8935   -1.1808  -18.9211 C   0  0  0  0  0  0  0  0  0  0  0  0
   -6.2624   -0.6447  -17.8459 N   0  0  0  0  0  0  0  0  0  0  0  0
   -5.2094    0.0995  -18.0869 C   0  0  0  0  0  0  0  0  0  0  0  0
   -4.7150    0.3775  -19.3931 C   0  0  0  0  0  0  0  0  0  0  0  0
   -3.5743    1.2012  -19.5994 C   0  0  0  0  0  0  0  0  0  0  0  0
   -3.0884    1.4115  -20.8620 C   0  0  0  0  0  0  0  0  0  0  0  0
   -3.7348    0.8229  -21.9715 C   0  0  0  0  0  0  0  0  0  0  0  0
   -4.8546    0.0415  -21.8021 C   0  0  0  0  0  0  0  0  0  0  0  0
   -5.3812   -0.2081  -20.5028 C   0  0  0  0  0  0  0  0  0  0  0  0
   -9.1121   -2.8342  -23.4406 C   0  0  0  0  0  0  0  0  0  0  0  0
  -10.4841   -3.4039  -23.0702 C   0  0  0  0  0  0  0  0  0  0  0  0
  -12.6480   -4.7011  -24.2198 H   0  0  0  0  0  0  0  0  0  0  0  0
  -13.7034   -3.2897  -24.3981 H   0  0  0  0  0  0  0  0  0  0  0  0
  -13.2161   -3.8369  -22.7834 H   0  0  0  0  0  0  0  0  0  0  0  0
  -11.3323   -2.7320  -24.9139 H   0  0  0  0  0  0  0  0  0  0  0  0
  -13.0223   -1.2427  -23.0162 H   0  0  0  0  0  0  0  0  0  0  0  0
  -11.5311    0.6214  -23.0887 H   0  0  0  0  0  0  0  0  0  0  0  0
   -9.7167   -0.7839  -24.9301 H   0  0  0  0  0  0  0  0  0  0  0  0
   -9.2720    0.5085  -23.8330 H   0  0  0  0  0  0  0  0  0  0  0  0
   -7.6835   -2.6902  -20.8621 H   0  0  0  0  0  0  0  0  0  0  0  0
   -6.6392   -2.0510  -22.1245 H   0  0  0  0  0  0  0  0  0  0  0  0
   -7.7606   -1.7997  -18.6929 H   0  0  0  0  0  0  0  0  0  0  0  0
   -4.7423    0.5800  -17.2284 H   0  0  0  0  0  0  0  0  0  0  0  0
   -3.0914    1.6561  -18.7373 H   0  0  0  0  0  0  0  0  0  0  0  0
   -2.2084    2.0319  -21.0181 H   0  0  0  0  0  0  0  0  0  0  0  0
   -3.3406    0.9962  -22.9699 H   0  0  0  0  0  0  0  0  0  0  0  0
   -5.3399   -0.3920  -22.6725 H   0  0  0  0  0  0  0  0  0  0  0  0
   -8.3197   -3.4020  -22.9436 H   0  0  0  0  0  0  0  0  0  0  0  0
   -8.9613   -2.9448  -24.5160 H   0  0  0  0  0  0  0  0  0  0  0  0
  -10.4592   -4.4917  -23.2258 H   0  0  0  0  0  0  0  0  0  0  0  0
  -10.6637   -3.2549  -22.0005 H   0  0  0  0  0  0  0  0  0  0  0  0
  1  2  1  0
  2  3  1  0
  3  4  2  0
  4  5  1  0
  5  6  1  0
  6  7  1  0
  7  8  2  0
  7  9  1  0
  9 10  1  0
 10 11  2  0
 11 12  1  0
 12 13  2  0
 13 14  1  0
 14 15  2  0
 15 16  1  0
 16 17  2  0
 17 18  1  0
 18 19  2  0
  6 20  1  0
 20 21  1  0
 21  2  1  0
 19 10  1  0
 19 14  1  0
  1 22  1  0
  1 23  1  0
  1 24  1  0
  2 25  1  6
  3 26  1  0
  4 27  1  0
  5 28  1  0
  5 29  1  0
  9 30  1  0
  9 31  1  0
 11 32  1  0
 13 33  1  0
 15 34  1  0
 16 35  1  0
 17 36  1  0
 18 37  1  0
 20 38  1  0
 20 39  1  0
 21 40  1  0
 21 41  1  0
M  END
