
     RDKit          3D

 41 43  0  0  0  0  0  0  0  0999 V2000
   13.2734   -2.4943   23.7015 C   0  0  0  0  0  0  0  0  0  0  0  0
   12.0272   -1.6177   23.7563 C   0  0  1  0  0  0  0  0  0  0  0  0
   12.3397   -0.2173   23.2743 C   0  0  0  0  0  0  0  0  0  0  0  0
   11.4830    0.7991   23.2962 C   0  0  0  0  0  0  0  0  0  0  0  0
   10.0565    0.6500   23.7700 C   0  0  0  0  0  0  0  0  0  0  0  0
    9.2475   -0.3407   23.0530 N   0  0  0  0  0  0  0  0  0  0  0  0
    8.7721    0.0563   21.8193 C   0  0  0  0  0  0  0  0  0  0  0  0
    9.2356    1.0345   21.2710 O   0  0  0  0  0  0  0  0  0  0  0  0
    7.6010   -0.7562   21.2500 C   0  0  0  0  0  0  0  0  0  0  0  0
    6.7854   -0.0673   20.1838 C   0  0  0  0  0  0  0  0  0  0  0  0
    7.1374   -0.2312   18.8671 C   0  0  0  0  0  0  0  0  0  0  0  0
    6.4727    0.2675   17.7942 N   0  0  0  0  0  0  0  0  0  0  0  0
    5.4013    0.9831   18.0408 C   0  0  0  0  0  0  0  0  0  0  0  0
    4.9198    1.2674   19.3505 C   0  0  0  0  0  0  0  0  0  0  0  0
    3.7578    2.0592   19.5626 C   0  0  0  0  0  0  0  0  0  0  0  0
    3.2862    2.2754   20.8296 C   0  0  0  0  0  0  0  0  0  0  0  0
    3.9683    1.7252   21.9375 C   0  0  0  0  0  0  0  0  0  0  0  0
    5.1088    0.9757   21.7619 C   0  0  0  0  0  0  0  0  0  0  0  0
    5.6217    0.7209   20.4581 C   0  0  0  0  0  0  0  0  0  0  0  0
    9.4789   -1.7412   23.3748 C   0  0  0  0  0  0  0  0  0  0  0  0
   10.8616   -2.2748   22.9907 C   0  0  0  0  0  0  0  0  0  0  0  0
   13.0827   -3.4862   24.1245 H   0  0  0  0  0  0  0  0  0  0  0  0
   14.0969   -2.0405   24.2626 H   0  0  0  0  0  0  0  0  0  0  0  0
   13.6006   -2.6289   22.6652 H   0  0  0  0  0  0  0  0  0  0  0  0
   11.7185   -1.5470   24.8089 H   0  0  0  0  0  0  0  0  0  0  0  0
   13.3308   -0.0383   22.8596 H   0  0  0  0  0  0  0  0  0  0  0  0
   11.7842    1.7803   22.9272 H   0  0  0  0  0  0  0  0  0  0  0  0
   10.0441    0.3509   24.8210 H   0  0  0  0  0  0  0  0  0  0  0  0
    9.5421    1.6108   23.7109 H   0  0  0  0  0  0  0  0  0  0  0  0
    8.0049   -1.6835   20.8186 H   0  0  0  0  0  0  0  0  0  0  0  0
    6.9620   -1.0557   22.0879 H   0  0  0  0  0  0  0  0  0  0  0  0
    8.0193   -0.8270   18.6344 H   0  0  0  0  0  0  0  0  0  0  0  0
    4.9058    1.4349   17.1827 H   0  0  0  0  0  0  0  0  0  0  0  0
    3.2472    2.4849   18.7015 H   0  0  0  0  0  0  0  0  0  0  0  0
    2.3902    2.8711   20.9905 H   0  0  0  0  0  0  0  0  0  0  0  0
    3.5852    1.9029   22.9394 H   0  0  0  0  0  0  0  0  0  0  0  0
    5.6213    0.5716   22.6309 H   0  0  0  0  0  0  0  0  0  0  0  0
    8.6964   -2.3411   22.9003 H   0  0  0  0  0  0  0  0  0  0  0  0
    9.3490   -1.8386   24.4542 H   0  0  0  0  0  0  0  0  0  0  0  0
   10.8727   -3.3602   23.1641 H   0  0  0  0  0  0  0  0  0  0  0  0
   11.0191   -2.1381   21.9159 H   0  0  0  0  0  0  0  0  0  0  0  0
  1  2  1  0
  2  3  1  0
  3  4  2  0
  4  5  1  0
  5  6  1  0
  6  7  1  0
  7  8  2  0
  7  9  1  0
  9 10  1  0
 10 11  2  0
 11 12  1  0
 12 13  2  0
 13 14  1  0
 14 15  2  0
 15 16  1  0
 16 17  2  0
 17 18  1  0
 18 19  2  0
  6 20  1  0
 20 21  1  0
 21  2  1  0
 19 10  1  0
 19 14  1  0
  1 22  1  0
  1 23  1  0
  1 24  1  0
  2 25  1  1
  3 26  1  0
  4 27  1  0
  5 28  1  0
  5 29  1  0
  9 30  1  0
  9 31  1  0
 11 32  1  0
 13 33  1  0
 15 34  1  0
 16 35  1  0
 17 36  1  0
 18 37  1  0
 20 38  1  0
 20 39  1  0
 21 40  1  0
 21 41  1  0
M  END
$$$$
