LIG(A-307)
     RDKit          3D

 33 37  0  0  1  0  0  0  0  0999 V2000
    8.6222    6.8202   22.8006 N   0  0  0  0  0  0  0  0  0  0  0  0
    7.9513    5.9011   22.8156 C   0  0  0  0  0  0  0  0  0  0  0  0
    7.0465    4.7450   22.7926 C   0  0  0  0  0  0  0  0  0  0  0  0
    5.6905    4.9197   23.4398 C   0  0  0  0  0  0  0  0  0  0  0  0
    5.7933    4.9219   21.9628 C   0  0  0  0  0  0  0  0  0  0  0  0
    7.7337    3.3841   22.8194 C   0  0  0  0  0  0  0  0  0  0  0  0
    7.9590    2.6469   24.4262 S   0  0  0  0  0  0  0  0  0  0  0  0
    6.7261    2.0527   24.8373 O   0  0  0  0  0  0  0  0  0  0  0  0
    8.5760    3.6209   25.2703 O   0  0  0  0  0  0  0  0  0  0  0  0
    9.0281    1.4371   24.2250 N   0  0  0  0  0  0  0  0  0  0  0  0
   10.4302    1.6863   24.5778 C   0  0  0  0  0  0  0  0  0  0  0  0
    8.6543    0.0111   24.1809 C   0  0  0  0  0  0  0  0  0  0  0  0
    9.3662   -0.5857   22.9637 C   0  0  2  0  0  0  0  0  0  0  0  0
   10.8592   -0.2795   23.0085 C   0  0  0  0  0  0  0  0  0  0  0  0
   11.3301    0.8495   23.7016 C   0  0  0  0  0  0  0  0  0  0  0  0
   12.6761    1.1977   23.6054 C   0  0  0  0  0  0  0  0  0  0  0  0
   13.5601    0.4409   22.8602 C   0  0  0  0  0  0  0  0  0  0  0  0
   11.7642   -1.0613   22.2853 C   0  0  0  0  0  0  0  0  0  0  0  0
   13.0961   -0.6841   22.2191 C   0  0  0  0  0  0  0  0  0  0  0  0
   14.2031   -1.6299   21.2609 Cl  0  0  0  0  0  0  0  0  0  0  0  0
    8.7550    0.0624   21.7188 C   0  0  0  0  0  0  0  0  0  0  0  0
    9.2728    1.0305   21.1729 O   0  0  0  0  0  0  0  0  0  0  0  0
    7.5830   -0.4828   21.2969 N   0  0  0  0  0  0  0  0  0  0  0  0
    6.7858   -0.0558   20.2051 C   0  0  0  0  0  0  0  0  0  0  0  0
    5.6147    0.7301   20.4574 C   0  0  0  0  0  0  0  0  0  0  0  0
    5.0918    0.9758   21.7555 C   0  0  0  0  0  0  0  0  0  0  0  0
    3.9618    1.7267   21.9287 C   0  0  0  0  0  0  0  0  0  0  0  0
    3.2945    2.2677   20.8369 C   0  0  0  0  0  0  0  0  0  0  0  0
    3.7594    2.0639   19.5678 C   0  0  0  0  0  0  0  0  0  0  0  0
    4.9265    1.2901   19.3425 C   0  0  0  0  0  0  0  0  0  0  0  0
    5.4363    1.0233   18.0474 C   0  0  0  0  0  0  0  0  0  0  0  0
    6.5064    0.2805   17.8092 N   0  0  0  0  0  0  0  0  0  0  0  0
    7.1506   -0.2376   18.8670 C   0  0  0  0  0  0  0  0  0  0  0  0
  1  2  3  0
  3  2  1  0
  3  4  1  0
  3  5  1  0
  3  6  1  0
  4  5  1  0
  6  7  1  0
  7  8  2  0
  7  9  2  0
  7 10  1  0
 10 11  1  0
 10 12  1  0
 11 15  1  0
 12 13  1  0
 13 14  1  0
 13 21  1  6
 14 15  2  0
 14 18  1  0
 15 16  1  0
 16 17  2  0
 17 19  1  0
 18 19  2  0
 19 20  1  0
 21 22  2  0
 21 23  1  0
 23 24  1  0
 24 25  1  0
 24 33  2  0
 25 26  2  0
 25 30  1  0
 26 27  1  0
 27 28  2  0
 28 29  1  0
 29 30  2  0
 30 31  1  0
 31 32  2  0
 32 33  1  0
M  END
$$$$
