
     RDKit          3D

 41 47  0  0  0  0  0  0  0  0999 V2000
    9.0794    4.1775   23.8598 O   0  0  0  0  0  0  0  0  0  0  0  0
    8.9513    2.9736   23.6989 C   0  0  0  0  0  0  0  0  0  0  0  0
   10.0532    2.1216   23.1610 C   0  0  0  0  0  0  0  0  0  0  0  0
   11.3376    2.6526   23.1720 C   0  0  0  0  0  0  0  0  0  0  0  0
   12.4046    1.9136   22.6936 C   0  0  0  0  0  0  0  0  0  0  0  0
   12.1384    0.6661   22.1313 C   0  0  0  0  0  0  0  0  0  0  0  0
   13.3985   -0.3329   21.4642 Cl  0  0  0  0  0  0  0  0  0  0  0  0
   10.8555    0.1671   22.0360 C   0  0  0  0  0  0  0  0  0  0  0  0
    9.7924    0.8548   22.6290 C   0  0  0  0  0  0  0  0  0  0  0  0
    8.3848    0.2952   22.6734 C   0  0  1  0  0  0  0  0  0  0  0  0
    7.7119    0.8531   23.9665 C   0  0  0  0  0  0  0  0  0  0  0  0
    7.7939    2.3070   24.0033 N   0  0  0  0  0  0  0  0  0  0  0  0
    6.6874    3.0887   24.5142 C   0  0  0  0  0  0  0  0  0  0  0  0
    6.5664    3.0828   26.0081 C   0  0  0  0  0  0  0  0  0  0  0  0
    6.9807    3.9515   26.8696 N   0  0  0  0  0  0  0  0  0  0  0  0
    6.6086    3.4772   28.1245 N   0  0  0  0  0  0  0  0  0  0  0  0
    5.9872    2.3722   27.9091 C   0  0  0  0  0  0  0  0  0  0  0  0
    5.9154    2.0466   26.5988 O   0  0  0  0  0  0  0  0  0  0  0  0
    7.5926    0.7467   21.4266 C   0  0  0  0  0  0  0  0  0  0  0  0
    7.5999    1.8321   20.8870 O   0  0  0  0  0  0  0  0  0  0  0  0
    6.8431   -0.3196   20.9828 N   0  0  0  0  0  0  0  0  0  0  0  0
    5.8882   -0.1665   19.9615 C   0  0  0  0  0  0  0  0  0  0  0  0
    6.0825   -0.7893   18.7569 C   0  0  0  0  0  0  0  0  0  0  0  0
    5.2737   -0.6447   17.6823 N   0  0  0  0  0  0  0  0  0  0  0  0
    4.2152    0.1163   17.8346 C   0  0  0  0  0  0  0  0  0  0  0  0
    3.8694    0.7745   19.0480 C   0  0  0  0  0  0  0  0  0  0  0  0
    2.6964    1.5631   19.1583 C   0  0  0  0  0  0  0  0  0  0  0  0
    2.3531    2.1390   20.3485 C   0  0  0  0  0  0  0  0  0  0  0  0
    3.1877    1.9868   21.4777 C   0  0  0  0  0  0  0  0  0  0  0  0
    4.3452    1.2575   21.3891 C   0  0  0  0  0  0  0  0  0  0  0  0
    4.7184    0.6291   20.1638 C   0  0  0  0  0  0  0  0  0  0  0  0
    7.0042   -1.5303   21.7482 C   0  0  0  0  0  0  0  0  0  0  0  0
    8.2816   -1.2511   22.5500 C   0  0  2  0  0  0  0  0  0  0  0  0
    8.3273   -2.0698   23.8472 C   0  0  0  0  0  0  0  0  0  0  0  0
    8.3784   -3.4985   23.5901 N   0  0  0  0  0  0  0  0  0  0  0  0
    7.3097   -4.3188   23.5962 C   0  0  0  0  0  0  0  0  0  0  0  0
    7.5469   -5.6010   23.2306 N   0  0  0  0  0  0  0  0  0  0  0  0
    6.4736   -6.3680   23.2272 C   0  0  0  0  0  0  0  0  0  0  0  0
    5.2270   -6.0103   23.5534 N   0  0  0  0  0  0  0  0  0  0  0  0
    5.1220   -4.7343   23.9146 C   0  0  0  0  0  0  0  0  0  0  0  0
    6.1002   -3.8365   23.9549 N   0  0  0  0  0  0  0  0  0  0  0  0
  1  2  2  0
  2  3  1  0
  3  4  2  0
  4  5  1  0
  5  6  2  0
  6  7  1  0
  6  8  1  0
  8  9  2  0
  9 10  1  0
 10 11  1  1
 11 12  1  0
 12 13  1  0
 13 14  1  0
 14 15  2  0
 15 16  1  0
 16 17  2  0
 17 18  1  0
 10 19  1  0
 19 20  2  0
 19 21  1  0
 21 22  1  0
 22 23  2  0
 23 24  1  0
 24 25  2  0
 25 26  1  0
 26 27  2  0
 27 28  1  0
 28 29  2  0
 29 30  1  0
 30 31  2  0
 21 32  1  0
 32 33  1  0
 33 34  1  1
 34 35  1  0
 35 36  1  0
 36 37  2  0
 37 38  1  0
 38 39  2  0
 39 40  1  0
 40 41  2  0
 12  2  1  0
 18 14  1  0
 31 22  1  0
 41 36  1  0
  9  3  1  0
 33 10  1  0
 31 26  1  0
M  END
>  <cnnaffinities>  (1) 
[6.69447, 6.72855, 6.73273, 6.74796, 6.95049, 6.74132, 6.73952, 6.66525]

>  <score>  (1) 
6.69447

>  <index>  (1) 
0

>  <Smiles>  (1) 
O=C1c2c(c(c(Cl)c(c2[C@@]2(C(N1C(c1nnc(o1)[H])([H])[H])([H])[H])C(=O)N(c1c(nc(c3c(c(c(c(c13)[H])[H])[H])[H])[H])[H])C([C@@]2(C(N(c1nc(nc(n1)[H])[H])[H])([H])[H])[H])([H])[H])[H])[H])[H]

>  <h>  (1) 
<NA>

>  <Training>  (1) 
True

>  <Success>  (1) 
True

>  <enamine_searched>  (1) 
False

>  <enamine_id>  (1) 
nan

$$$$

     RDKit          3D

 30 33  0  0  0  0  0  0  0  0999 V2000
   13.0163    0.7787   23.9307 C   0  0  0  0  0  0  0  0  0  0  0  0
   12.6768   -0.4423   23.3184 O   0  0  0  0  0  0  0  0  0  0  0  0
   11.3726   -0.7974   23.2141 C   0  0  0  0  0  0  0  0  0  0  0  0
   11.1492   -2.0250   22.5865 C   0  0  0  0  0  0  0  0  0  0  0  0
    9.8600   -2.4899   22.4114 C   0  0  0  0  0  0  0  0  0  0  0  0
    8.7679   -1.7305   22.8395 C   0  0  0  0  0  0  0  0  0  0  0  0
    7.4433   -2.2288   22.6382 N   0  0  0  0  0  0  0  0  0  0  0  0
    7.0231   -3.4159   23.3886 C   0  0  0  0  0  0  0  0  0  0  0  0
    6.6497   -3.0957   24.8274 C   0  0  0  0  0  0  0  0  0  0  0  0
    7.6509   -2.9953   25.7893 C   0  0  0  0  0  0  0  0  0  0  0  0
    7.3365   -2.6901   27.1052 C   0  0  0  0  0  0  0  0  0  0  0  0
    6.0261   -2.4165   27.4797 C   0  0  0  0  0  0  0  0  0  0  0  0
    5.0264   -2.5333   26.5194 C   0  0  0  0  0  0  0  0  0  0  0  0
    3.3648   -2.2447   26.9751 Cl  0  0  0  0  0  0  0  0  0  0  0  0
    5.3231   -2.8842   25.2065 C   0  0  0  0  0  0  0  0  0  0  0  0
    6.4403   -1.5175   22.0114 C   0  0  0  0  0  0  0  0  0  0  0  0
    5.2679   -1.7992   22.1845 O   0  0  0  0  0  0  0  0  0  0  0  0
    6.8699   -0.4031   21.0515 C   0  0  0  0  0  0  0  0  0  0  0  0
    5.8698   -0.1865   19.9500 C   0  0  0  0  0  0  0  0  0  0  0  0
    6.0452   -0.8080   18.7448 C   0  0  0  0  0  0  0  0  0  0  0  0
    5.2400   -0.6676   17.6609 N   0  0  0  0  0  0  0  0  0  0  0  0
    4.1783    0.0856   17.8076 C   0  0  0  0  0  0  0  0  0  0  0  0
    3.8235    0.7350   19.0195 C   0  0  0  0  0  0  0  0  0  0  0  0
    2.6367    1.5006   19.1438 C   0  0  0  0  0  0  0  0  0  0  0  0
    2.3075    2.0955   20.3292 C   0  0  0  0  0  0  0  0  0  0  0  0
    3.1860    1.9963   21.4288 C   0  0  0  0  0  0  0  0  0  0  0  0
    4.3527    1.2796   21.3294 C   0  0  0  0  0  0  0  0  0  0  0  0
    4.6949    0.6080   20.1250 C   0  0  0  0  0  0  0  0  0  0  0  0
    9.0031   -0.5186   23.4822 C   0  0  0  0  0  0  0  0  0  0  0  0
   10.2978   -0.0443   23.6713 C   0  0  0  0  0  0  0  0  0  0  0  0
  1  2  1  0
  2  3  1  0
  3  4  2  0
  4  5  1  0
  5  6  2  0
  6  7  1  0
  7  8  1  0
  8  9  1  0
  9 10  2  0
 10 11  1  0
 11 12  2  0
 12 13  1  0
 13 14  1  0
 13 15  2  0
  7 16  1  0
 16 17  2  0
 16 18  1  0
 18 19  1  0
 19 20  2  0
 20 21  1  0
 21 22  2  0
 22 23  1  0
 23 24  2  0
 24 25  1  0
 25 26  2  0
 26 27  1  0
 27 28  2  0
  6 29  1  0
 29 30  2  0
 30  3  1  0
 15  9  1  0
 28 19  1  0
 28 23  1  0
M  END
$$$$

     RDKit          3D

 40 45  0  0  0  0  0  0  0  0999 V2000
   -7.0091    3.6327  -22.4894 C   0  0  0  0  0  0  0  0  0  0  0  0
   -7.7957    2.6945  -23.2687 N   0  0  0  0  0  0  0  0  0  0  0  0
   -7.5046    2.5242  -24.5778 C   0  0  0  0  0  0  0  0  0  0  0  0
   -6.7357    3.2404  -25.2042 O   0  0  0  0  0  0  0  0  0  0  0  0
   -8.1583    1.3526  -25.3202 C   0  0  0  0  0  0  0  0  0  0  0  0
   -8.9884    0.4586  -24.5548 N   0  0  0  0  0  0  0  0  0  0  0  0
   -8.5103   -0.8890  -24.2805 C   0  0  0  0  0  0  0  0  0  0  0  0
   -9.0687   -1.4265  -22.9394 C   0  0  2  0  0  0  0  0  0  0  0  0
   -8.4704   -0.5760  -21.7907 C   0  0  0  0  0  0  0  0  0  0  0  0
   -8.7798    0.5665  -21.5101 O   0  0  0  0  0  0  0  0  0  0  0  0
   -7.4967   -1.3113  -21.1517 N   0  0  0  0  0  0  0  0  0  0  0  0
   -6.6565   -0.7940  -20.1252 C   0  0  0  0  0  0  0  0  0  0  0  0
   -6.8878   -1.1452  -18.8188 C   0  0  0  0  0  0  0  0  0  0  0  0
   -6.1266   -0.7520  -17.7670 N   0  0  0  0  0  0  0  0  0  0  0  0
   -5.1033    0.0303  -18.0104 C   0  0  0  0  0  0  0  0  0  0  0  0
   -4.7549    0.4854  -19.3154 C   0  0  0  0  0  0  0  0  0  0  0  0
   -3.6646    1.3676  -19.5324 C   0  0  0  0  0  0  0  0  0  0  0  0
   -3.3242    1.7617  -20.7960 C   0  0  0  0  0  0  0  0  0  0  0  0
   -4.0595    1.2874  -21.9031 C   0  0  0  0  0  0  0  0  0  0  0  0
   -5.1409    0.4607  -21.7213 C   0  0  0  0  0  0  0  0  0  0  0  0
   -5.5306    0.0460  -20.4159 C   0  0  0  0  0  0  0  0  0  0  0  0
   -7.2203   -2.5768  -21.8067 C   0  0  0  0  0  0  0  0  0  0  0  0
   -8.5394   -2.8315  -22.5490 C   0  0  2  0  0  0  0  0  0  0  0  0
   -8.4715   -3.8562  -23.6846 C   0  0  0  0  0  0  0  0  0  0  0  0
   -8.2190   -5.2109  -23.2411 N   0  0  0  0  0  0  0  0  0  0  0  0
   -6.9579   -5.7036  -23.1163 C   0  0  0  0  0  0  0  0  0  0  0  0
   -6.7199   -6.9378  -22.4809 C   0  0  0  0  0  0  0  0  0  0  0  0
   -5.4094   -7.3483  -22.4387 C   0  0  0  0  0  0  0  0  0  0  0  0
   -4.3929   -6.6784  -22.9990 N   0  0  0  0  0  0  0  0  0  0  0  0
   -4.7366   -5.5400  -23.5833 C   0  0  0  0  0  0  0  0  0  0  0  0
   -5.9495   -4.9930  -23.6408 N   0  0  0  0  0  0  0  0  0  0  0  0
  -10.5779   -1.3025  -23.0407 C   0  0  0  0  0  0  0  0  0  0  0  0
  -11.4688   -2.2521  -22.5333 C   0  0  0  0  0  0  0  0  0  0  0  0
  -12.8245   -1.9772  -22.4822 C   0  0  0  0  0  0  0  0  0  0  0  0
  -13.8622   -3.1034  -21.6486 Cl  0  0  0  0  0  0  0  0  0  0  0  0
  -13.3629   -0.8037  -23.0093 C   0  0  0  0  0  0  0  0  0  0  0  0
  -12.4986    0.1062  -23.5847 C   0  0  0  0  0  0  0  0  0  0  0  0
  -11.1293   -0.1480  -23.6155 C   0  0  0  0  0  0  0  0  0  0  0  0
  -10.2563    0.8740  -24.2604 C   0  0  0  0  0  0  0  0  0  0  0  0
  -10.6476    2.0170  -24.4850 O   0  0  0  0  0  0  0  0  0  0  0  0
  1  2  1  0
  2  3  1  0
  3  4  2  0
  3  5  1  0
  5  6  1  0
  6  7  1  0
  8  7  1  6
  8  9  1  0
  9 10  2  0
  9 11  1  0
 11 12  1  0
 12 13  2  0
 13 14  1  0
 14 15  2  0
 15 16  1  0
 16 17  2  0
 17 18  1  0
 18 19  2  0
 19 20  1  0
 20 21  2  0
 11 22  1  0
 22 23  1  0
 23 24  1  6
 24 25  1  0
 25 26  1  0
 26 27  2  0
 27 28  1  0
 28 29  2  0
 29 30  1  0
 30 31  2  0
  8 32  1  0
 32 33  2  0
 33 34  1  0
 34 35  1  0
 34 36  2  0
 36 37  1  0
 37 38  2  0
 38 39  1  0
 39 40  2  0
 39  6  1  0
 23  8  1  0
 31 26  1  0
 38 32  1  0
 21 12  1  0
 21 16  1  0
M  END
$$$$

     RDKit          3D

 33 37  0  0  0  0  0  0  0  0999 V2000
   13.5870    0.7468   23.4785 C   0  0  0  0  0  0  0  0  0  0  0  0
   12.5995   -0.2244   23.0339 N   0  0  0  0  0  0  0  0  0  0  0  0
   12.9884   -1.5372   22.9806 C   0  0  0  0  0  0  0  0  0  0  0  0
   14.1493   -1.8779   23.1088 O   0  0  0  0  0  0  0  0  0  0  0  0
   11.8990   -2.5686   22.7020 C   0  0  0  0  0  0  0  0  0  0  0  0
   10.5368   -2.2699   23.1203 N   0  0  0  0  0  0  0  0  0  0  0  0
    9.3899   -2.5791   22.2619 C   0  0  0  0  0  0  0  0  0  0  0  0
    8.3314   -1.4830   22.4484 C   0  0  2  0  0  0  0  0  0  0  0  0
    7.1031   -1.6960   21.5402 C   0  0  0  0  0  0  0  0  0  0  0  0
    6.5806   -2.7514   21.2519 O   0  0  0  0  0  0  0  0  0  0  0  0
    6.6811   -0.4535   21.0946 N   0  0  0  0  0  0  0  0  0  0  0  0
    5.7828   -0.2864   20.0097 C   0  0  0  0  0  0  0  0  0  0  0  0
    6.0572   -0.8107   18.7700 C   0  0  0  0  0  0  0  0  0  0  0  0
    5.3195   -0.5577   17.6608 N   0  0  0  0  0  0  0  0  0  0  0  0
    4.2659    0.2151   17.7889 C   0  0  0  0  0  0  0  0  0  0  0  0
    3.8667    0.8235   19.0147 C   0  0  0  0  0  0  0  0  0  0  0  0
    2.7222    1.6630   19.1163 C   0  0  0  0  0  0  0  0  0  0  0  0
    2.3797    2.2308   20.3141 C   0  0  0  0  0  0  0  0  0  0  0  0
    3.1754    2.0094   21.4599 C   0  0  0  0  0  0  0  0  0  0  0  0
    4.2956    1.2166   21.3820 C   0  0  0  0  0  0  0  0  0  0  0  0
    4.6570    0.5859   20.1600 C   0  0  0  0  0  0  0  0  0  0  0  0
    7.6254    0.6172   21.4060 C   0  0  0  0  0  0  0  0  0  0  0  0
    8.8557   -0.0817   22.0053 C   0  0  2  0  0  0  0  0  0  0  0  0
   10.0156   -0.1665   21.0558 N   0  0  0  0  0  0  0  0  0  0  0  0
    7.9767   -1.4373   23.9363 C   0  0  0  0  0  0  0  0  0  0  0  0
    6.7821   -0.8673   24.3912 C   0  0  0  0  0  0  0  0  0  0  0  0
    6.5567   -0.7334   25.7525 C   0  0  0  0  0  0  0  0  0  0  0  0
    5.1118    0.0465   26.3202 Cl  0  0  0  0  0  0  0  0  0  0  0  0
    7.4698   -1.1994   26.6946 C   0  0  0  0  0  0  0  0  0  0  0  0
    8.6586   -1.7467   26.2511 C   0  0  0  0  0  0  0  0  0  0  0  0
    8.9348   -1.8215   24.8861 C   0  0  0  0  0  0  0  0  0  0  0  0
   10.3066   -2.2646   24.4786 C   0  0  0  0  0  0  0  0  0  0  0  0
   11.1839   -2.5240   25.2899 O   0  0  0  0  0  0  0  0  0  0  0  0
  1  2  1  0
  2  3  1  0
  3  4  2  0
  3  5  1  0
  5  6  1  0
  6  7  1  0
  8  7  1  1
  8  9  1  0
  9 10  2  0
  9 11  1  0
 11 12  1  0
 12 13  2  0
 13 14  1  0
 14 15  2  0
 15 16  1  0
 16 17  2  0
 17 18  1  0
 18 19  2  0
 19 20  1  0
 20 21  2  0
 11 22  1  0
 22 23  1  0
 23 24  1  6
  8 25  1  0
 25 26  2  0
 26 27  1  0
 27 28  1  0
 27 29  2  0
 29 30  1  0
 30 31  2  0
 31 32  1  0
 32 33  2  0
 32  6  1  0
 23  8  1  0
 31 25  1  0
 21 12  1  0
 21 16  1  0
M  CHG  1  24   1
M  END
>  <cnnaffinities>  (4) 
[6.34866, 6.09243, 6.35237]

>  <score>  (4) 
6.34866

>  <index>  (4) 
2

>  <Smiles>  (4) 
C(N(C(=O)C(N1C([C@@]2(C(=O)N(c3c(nc(c4c(c(c(c(c34)[H])[H])[H])[H])[H])[H])C([C@@]2([N+]([H])([H])[H])[H])([H])[H])c2c(c(Cl)c(c(c2C1=O)[H])[H])[H])([H])[H])([H])[H])[H])([H])([H])[H]

>  <h>  (4) 
<NA>

>  <Training>  (4) 
True

>  <Success>  (4) 
True

>  <enamine_searched>  (4) 
False

>  <enamine_id>  (4) 
nan

$$$$

     RDKit          3D

 42 48  0  0  0  0  0  0  0  0999 V2000
   10.7017    3.7062   23.2738 O   0  0  0  0  0  0  0  0  0  0  0  0
   10.1162    2.6384   23.1573 C   0  0  0  0  0  0  0  0  0  0  0  0
   10.8007    1.4036   22.6547 C   0  0  0  0  0  0  0  0  0  0  0  0
   12.1786    1.4666   22.4495 C   0  0  0  0  0  0  0  0  0  0  0  0
   12.8527    0.4113   21.8695 C   0  0  0  0  0  0  0  0  0  0  0  0
   12.1154   -0.7005   21.4647 C   0  0  0  0  0  0  0  0  0  0  0  0
   12.9228   -2.0081   20.6504 Cl  0  0  0  0  0  0  0  0  0  0  0  0
   10.7484   -0.7748   21.6502 C   0  0  0  0  0  0  0  0  0  0  0  0
   10.0711    0.2582   22.3078 C   0  0  0  0  0  0  0  0  0  0  0  0
    8.5695    0.1791   22.5205 C   0  0  1  0  0  0  0  0  0  0  0  0
    8.1997    1.1857   23.6486 C   0  0  0  0  0  0  0  0  0  0  0  0
    8.7781    2.4966   23.4138 N   0  0  0  0  0  0  0  0  0  0  0  0
    7.9448    3.6908   23.4631 C   0  0  0  0  0  0  0  0  0  0  0  0
    7.6582    4.2345   24.8575 C   0  0  0  0  0  0  0  0  0  0  0  0
    8.2081    5.4168   25.2978 C   0  0  0  0  0  0  0  0  0  0  0  0
    7.9037    5.8518   26.5855 C   0  0  0  0  0  0  0  0  0  0  0  0
    7.1099    5.1816   27.4145 N   0  0  0  0  0  0  0  0  0  0  0  0
    6.5565    4.0487   27.0005 N   0  0  0  0  0  0  0  0  0  0  0  0
    6.8142    3.5925   25.7769 C   0  0  0  0  0  0  0  0  0  0  0  0
    7.8368    0.5507   21.2111 C   0  0  0  0  0  0  0  0  0  0  0  0
    8.0692    1.4822   20.4729 O   0  0  0  0  0  0  0  0  0  0  0  0
    6.8277   -0.3625   21.0014 N   0  0  0  0  0  0  0  0  0  0  0  0
    5.8855   -0.1692   19.9643 C   0  0  0  0  0  0  0  0  0  0  0  0
    6.0961   -0.7632   18.7503 C   0  0  0  0  0  0  0  0  0  0  0  0
    5.2812   -0.6299   17.6753 N   0  0  0  0  0  0  0  0  0  0  0  0
    4.2123    0.1150   17.8277 C   0  0  0  0  0  0  0  0  0  0  0  0
    3.8680    0.7797   19.0412 C   0  0  0  0  0  0  0  0  0  0  0  0
    2.6999    1.5757   19.1565 C   0  0  0  0  0  0  0  0  0  0  0  0
    2.3868    2.1808   20.3421 C   0  0  0  0  0  0  0  0  0  0  0  0
    3.2415    2.0513   21.4587 C   0  0  0  0  0  0  0  0  0  0  0  0
    4.3898    1.3056   21.3695 C   0  0  0  0  0  0  0  0  0  0  0  0
    4.7242    0.6406   20.1542 C   0  0  0  0  0  0  0  0  0  0  0  0
    6.6829   -1.3486   22.0448 C   0  0  0  0  0  0  0  0  0  0  0  0
    8.0166   -1.2513   22.7965 C   0  0  2  0  0  0  0  0  0  0  0  0
    7.8614   -1.6644   24.2669 C   0  0  0  0  0  0  0  0  0  0  0  0
    7.4288   -3.0419   24.3881 N   0  0  0  0  0  0  0  0  0  0  0  0
    6.1447   -3.4218   24.6262 C   0  0  0  0  0  0  0  0  0  0  0  0
    5.7902   -4.7871   24.5819 C   0  0  0  0  0  0  0  0  0  0  0  0
    4.4750   -5.0969   24.8313 C   0  0  0  0  0  0  0  0  0  0  0  0
    3.5444   -4.1747   25.1263 N   0  0  0  0  0  0  0  0  0  0  0  0
    3.9857   -2.9262   25.1468 C   0  0  0  0  0  0  0  0  0  0  0  0
    5.2237   -2.4853   24.9042 N   0  0  0  0  0  0  0  0  0  0  0  0
  1  2  2  0
  2  3  1  0
  3  4  2  0
  4  5  1  0
  5  6  2  0
  6  7  1  0
  6  8  1  0
  8  9  2  0
  9 10  1  0
 10 11  1  1
 11 12  1  0
 12 13  1  0
 13 14  1  0
 14 15  2  0
 15 16  1  0
 16 17  2  0
 17 18  1  0
 18 19  2  0
 10 20  1  0
 20 21  2  0
 20 22  1  0
 22 23  1  0
 23 24  2  0
 24 25  1  0
 25 26  2  0
 26 27  1  0
 27 28  2  0
 28 29  1  0
 29 30  2  0
 30 31  1  0
 31 32  2  0
 22 33  1  0
 33 34  1  0
 34 35  1  1
 35 36  1  0
 36 37  1  0
 37 38  2  0
 38 39  1  0
 39 40  2  0
 40 41  1  0
 41 42  2  0
 12  2  1  0
 19 14  1  0
 32 23  1  0
 42 37  1  0
  9  3  1  0
 34 10  1  0
 32 27  1  0
M  END
>  <cnnaffinities>  (5) 
[6.60933, 6.81427, 6.90687, 6.60106, 6.68944]

>  <score>  (5) 
6.60933

>  <index>  (5) 
3

>  <Smiles>  (5) 
O=C1c2c(c(c(Cl)c(c2[C@@]2(C(N1C(c1c(c(nnc1[H])[H])[H])([H])[H])([H])[H])C(=O)N(c1c(nc(c3c(c(c(c(c13)[H])[H])[H])[H])[H])[H])C([C@@]2(C(N(c1c(c(nc(n1)[H])[H])[H])[H])([H])[H])[H])([H])[H])[H])[H])[H]

>  <h>  (5) 
<NA>

>  <Training>  (5) 
True

>  <Success>  (5) 
True

>  <enamine_searched>  (5) 
False

>  <enamine_id>  (5) 
nan

$$$$

     RDKit          3D

 40 45  0  0  0  0  0  0  0  0999 V2000
   -7.0118    3.6305  -22.4887 C   0  0  0  0  0  0  0  0  0  0  0  0
   -7.7903    2.6902  -23.2688 N   0  0  0  0  0  0  0  0  0  0  0  0
   -7.5025    2.5219  -24.5769 C   0  0  0  0  0  0  0  0  0  0  0  0
   -6.7346    3.2428  -25.2002 O   0  0  0  0  0  0  0  0  0  0  0  0
   -8.1557    1.3527  -25.3193 C   0  0  0  0  0  0  0  0  0  0  0  0
   -8.9841    0.4587  -24.5510 N   0  0  0  0  0  0  0  0  0  0  0  0
   -8.5097   -0.8896  -24.2791 C   0  0  0  0  0  0  0  0  0  0  0  0
   -9.0689   -1.4273  -22.9354 C   0  0  2  0  0  0  0  0  0  0  0  0
   -8.4686   -0.5784  -21.7892 C   0  0  0  0  0  0  0  0  0  0  0  0
   -8.7777    0.5659  -21.5092 O   0  0  0  0  0  0  0  0  0  0  0  0
   -7.4949   -1.3117  -21.1515 N   0  0  0  0  0  0  0  0  0  0  0  0
   -6.6539   -0.7972  -20.1261 C   0  0  0  0  0  0  0  0  0  0  0  0
   -6.8863   -1.1487  -18.8192 C   0  0  0  0  0  0  0  0  0  0  0  0
   -6.1276   -0.7514  -17.7675 N   0  0  0  0  0  0  0  0  0  0  0  0
   -5.1032    0.0289  -18.0110 C   0  0  0  0  0  0  0  0  0  0  0  0
   -4.7540    0.4834  -19.3155 C   0  0  0  0  0  0  0  0  0  0  0  0
   -3.6654    1.3687  -19.5311 C   0  0  0  0  0  0  0  0  0  0  0  0
   -3.3264    1.7610  -20.7943 C   0  0  0  0  0  0  0  0  0  0  0  0
   -4.0595    1.2864  -21.9030 C   0  0  0  0  0  0  0  0  0  0  0  0
   -5.1400    0.4588  -21.7222 C   0  0  0  0  0  0  0  0  0  0  0  0
   -5.5298    0.0446  -20.4165 C   0  0  0  0  0  0  0  0  0  0  0  0
   -7.2243   -2.5782  -21.8022 C   0  0  0  0  0  0  0  0  0  0  0  0
   -8.5385   -2.8341  -22.5436 C   0  0  2  0  0  0  0  0  0  0  0  0
   -8.4572   -3.8424  -23.6955 C   0  0  0  0  0  0  0  0  0  0  0  0
   -8.1911   -5.2151  -23.3301 N   0  0  0  0  0  0  0  0  0  0  0  0
   -6.9079   -5.7151  -23.1298 C   0  0  0  0  0  0  0  0  0  0  0  0
   -5.6491   -5.2154  -23.5518 C   0  0  0  0  0  0  0  0  0  0  0  0
   -4.6660   -6.0547  -23.2358 N   0  0  0  0  0  0  0  0  0  0  0  0
   -5.2572   -7.0683  -22.6082 N   0  0  0  0  0  0  0  0  0  0  0  0
   -4.4685   -8.1911  -22.1737 C   0  0  0  0  0  0  0  0  0  0  0  0
   -6.6009   -6.9199  -22.5241 C   0  0  0  0  0  0  0  0  0  0  0  0
  -10.5778   -1.3034  -23.0376 C   0  0  0  0  0  0  0  0  0  0  0  0
  -11.4695   -2.2538  -22.5333 C   0  0  0  0  0  0  0  0  0  0  0  0
  -12.8239   -1.9761  -22.4824 C   0  0  0  0  0  0  0  0  0  0  0  0
  -13.8660   -3.1057  -21.6601 Cl  0  0  0  0  0  0  0  0  0  0  0  0
  -13.3604   -0.8018  -23.0091 C   0  0  0  0  0  0  0  0  0  0  0  0
  -12.4966    0.1068  -23.5864 C   0  0  0  0  0  0  0  0  0  0  0  0
  -11.1275   -0.1497  -23.6152 C   0  0  0  0  0  0  0  0  0  0  0  0
  -10.2539    0.8742  -24.2598 C   0  0  0  0  0  0  0  0  0  0  0  0
  -10.6451    2.0118  -24.4862 O   0  0  0  0  0  0  0  0  0  0  0  0
  1  2  1  0
  2  3  1  0
  3  4  2  0
  3  5  1  0
  5  6  1  0
  6  7  1  0
  8  7  1  6
  8  9  1  0
  9 10  2  0
  9 11  1  0
 11 12  1  0
 12 13  2  0
 13 14  1  0
 14 15  2  0
 15 16  1  0
 16 17  2  0
 17 18  1  0
 18 19  2  0
 19 20  1  0
 20 21  2  0
 11 22  1  0
 22 23  1  0
 23 24  1  6
 24 25  1  0
 25 26  1  0
 26 27  1  0
 27 28  2  0
 28 29  1  0
 29 30  1  0
 29 31  1  0
  8 32  1  0
 32 33  2  0
 33 34  1  0
 34 35  1  0
 34 36  2  0
 36 37  1  0
 37 38  2  0
 38 39  1  0
 39 40  2  0
 39  6  1  0
 23  8  1  0
 31 26  2  0
 38 32  1  0
 21 12  1  0
 21 16  1  0
M  END
$$$$

     RDKit          3D

 36 41  0  0  0  0  0  0  0  0999 V2000
   -5.1108    5.0234  -22.1923 C   0  0  0  0  0  0  0  0  0  0  0  0
   -5.8849    4.0369  -23.0045 C   0  0  0  0  0  0  0  0  0  0  0  0
   -7.0858    3.5069  -22.5355 C   0  0  0  0  0  0  0  0  0  0  0  0
   -7.8179    2.6497  -23.2377 N   0  0  0  0  0  0  0  0  0  0  0  0
   -7.3080    2.2603  -24.4021 C   0  0  0  0  0  0  0  0  0  0  0  0
   -8.1282    1.3692  -25.2939 C   0  0  0  0  0  0  0  0  0  0  0  0
   -8.9721    0.4486  -24.5724 N   0  0  0  0  0  0  0  0  0  0  0  0
   -8.4795   -0.8847  -24.2815 C   0  0  0  0  0  0  0  0  0  0  0  0
   -9.0611   -1.4331  -22.9482 C   0  0  2  0  0  0  0  0  0  0  0  0
   -8.5032   -0.6010  -21.7570 C   0  0  0  0  0  0  0  0  0  0  0  0
   -8.8683    0.4935  -21.4146 O   0  0  0  0  0  0  0  0  0  0  0  0
   -7.4908   -1.3327  -21.1500 N   0  0  0  0  0  0  0  0  0  0  0  0
   -6.6429   -0.8196  -20.1286 C   0  0  0  0  0  0  0  0  0  0  0  0
   -6.8568   -1.1904  -18.8241 C   0  0  0  0  0  0  0  0  0  0  0  0
   -6.0672   -0.8342  -17.7792 N   0  0  0  0  0  0  0  0  0  0  0  0
   -5.0424   -0.0624  -18.0370 C   0  0  0  0  0  0  0  0  0  0  0  0
   -4.7208    0.4265  -19.3340 C   0  0  0  0  0  0  0  0  0  0  0  0
   -3.6477    1.3315  -19.5376 C   0  0  0  0  0  0  0  0  0  0  0  0
   -3.3297    1.7512  -20.7965 C   0  0  0  0  0  0  0  0  0  0  0  0
   -4.0692    1.2938  -21.9154 C   0  0  0  0  0  0  0  0  0  0  0  0
   -5.1510    0.4660  -21.7368 C   0  0  0  0  0  0  0  0  0  0  0  0
   -5.5166    0.0199  -20.4336 C   0  0  0  0  0  0  0  0  0  0  0  0
   -7.2036   -2.5810  -21.8292 C   0  0  0  0  0  0  0  0  0  0  0  0
   -8.5218   -2.8364  -22.5731 C   0  0  2  0  0  0  0  0  0  0  0  0
   -8.4252   -3.8457  -23.7063 C   0  0  0  0  0  0  0  0  0  0  0  0
  -10.5753   -1.3307  -23.0787 C   0  0  0  0  0  0  0  0  0  0  0  0
  -11.4793   -2.3059  -22.6289 C   0  0  0  0  0  0  0  0  0  0  0  0
  -12.8329   -2.0180  -22.6268 C   0  0  0  0  0  0  0  0  0  0  0  0
  -13.6888   -2.9300  -22.1345 F   0  0  0  0  0  0  0  0  0  0  0  0
  -13.3635   -0.8173  -23.0905 C   0  0  0  0  0  0  0  0  0  0  0  0
  -12.4817    0.1113  -23.6005 C   0  0  0  0  0  0  0  0  0  0  0  0
  -11.1157   -0.1603  -23.6321 C   0  0  0  0  0  0  0  0  0  0  0  0
  -10.2351    0.8652  -24.2655 C   0  0  0  0  0  0  0  0  0  0  0  0
  -10.6337    2.0039  -24.4862 O   0  0  0  0  0  0  0  0  0  0  0  0
   -6.0774    2.7337  -24.8389 C   0  0  0  0  0  0  0  0  0  0  0  0
   -5.3693    3.6372  -24.1726 N   0  0  0  0  0  0  0  0  0  0  0  0
  1  2  1  0
  2  3  2  0
  3  4  1  0
  4  5  2  0
  5  6  1  0
  6  7  1  0
  7  8  1  0
  9  8  1  6
  9 10  1  0
 10 11  2  0
 10 12  1  0
 12 13  1  0
 13 14  2  0
 14 15  1  0
 15 16  2  0
 16 17  1  0
 17 18  2  0
 18 19  1  0
 19 20  2  0
 20 21  1  0
 21 22  2  0
 12 23  1  0
 23 24  1  0
 24 25  1  6
  9 26  1  0
 26 27  2  0
 27 28  1  0
 28 29  1  0
 28 30  2  0
 30 31  1  0
 31 32  2  0
 32 33  1  0
 33 34  2  0
  5 35  1  0
 35 36  2  0
 36  2  1  0
 33  7  1  0
 24  9  1  0
 32 26  1  0
 22 13  1  0
 22 17  1  0
M  END
$$$$

     RDKit          3D

 37 41  0  0  0  0  0  0  0  0999 V2000
   -7.0074    3.6337  -22.4912 C   0  0  0  0  0  0  0  0  0  0  0  0
   -7.8007    2.7002  -23.2700 N   0  0  0  0  0  0  0  0  0  0  0  0
   -7.5101    2.5270  -24.5776 C   0  0  0  0  0  0  0  0  0  0  0  0
   -6.7373    3.2369  -25.2039 O   0  0  0  0  0  0  0  0  0  0  0  0
   -8.1570    1.3542  -25.3221 C   0  0  0  0  0  0  0  0  0  0  0  0
   -8.9936    0.4589  -24.5654 N   0  0  0  0  0  0  0  0  0  0  0  0
   -8.5135   -0.8834  -24.2744 C   0  0  0  0  0  0  0  0  0  0  0  0
   -9.0683   -1.4112  -22.9317 C   0  0  2  0  0  0  0  0  0  0  0  0
   -8.4712   -0.5658  -21.7833 C   0  0  0  0  0  0  0  0  0  0  0  0
   -8.7806    0.5773  -21.5017 O   0  0  0  0  0  0  0  0  0  0  0  0
   -7.5038   -1.3009  -21.1408 N   0  0  0  0  0  0  0  0  0  0  0  0
   -6.6566   -0.7913  -20.1201 C   0  0  0  0  0  0  0  0  0  0  0  0
   -6.8857   -1.1448  -18.8135 C   0  0  0  0  0  0  0  0  0  0  0  0
   -6.1246   -0.7482  -17.7653 N   0  0  0  0  0  0  0  0  0  0  0  0
   -5.1016    0.0343  -18.0069 C   0  0  0  0  0  0  0  0  0  0  0  0
   -4.7577    0.4890  -19.3138 C   0  0  0  0  0  0  0  0  0  0  0  0
   -3.6645    1.3680  -19.5330 C   0  0  0  0  0  0  0  0  0  0  0  0
   -3.3226    1.7616  -20.7962 C   0  0  0  0  0  0  0  0  0  0  0  0
   -4.0599    1.2873  -21.9007 C   0  0  0  0  0  0  0  0  0  0  0  0
   -5.1433    0.4605  -21.7181 C   0  0  0  0  0  0  0  0  0  0  0  0
   -5.5314    0.0456  -20.4121 C   0  0  0  0  0  0  0  0  0  0  0  0
   -7.2297   -2.5632  -21.7973 C   0  0  0  0  0  0  0  0  0  0  0  0
   -8.5336   -2.8199  -22.5623 C   0  0  2  0  0  0  0  0  0  0  0  0
   -8.3827   -3.8127  -23.7142 C   0  0  0  0  0  0  0  0  0  0  0  0
   -9.6160   -4.0244  -24.3701 O   0  0  0  0  0  0  0  0  0  0  0  0
  -10.1956   -5.3129  -24.2058 C   0  0  0  0  0  0  0  0  0  0  0  0
  -11.6785   -5.1530  -24.4670 C   0  0  0  0  0  0  0  0  0  0  0  0
   -9.5469   -6.3037  -25.1594 C   0  0  0  0  0  0  0  0  0  0  0  0
  -10.5756   -1.2893  -23.0358 C   0  0  0  0  0  0  0  0  0  0  0  0
  -11.4637   -2.2406  -22.5249 C   0  0  0  0  0  0  0  0  0  0  0  0
  -12.8194   -1.9674  -22.4679 C   0  0  0  0  0  0  0  0  0  0  0  0
  -13.8678   -3.0865  -21.6301 Cl  0  0  0  0  0  0  0  0  0  0  0  0
  -13.3615   -0.8015  -23.0046 C   0  0  0  0  0  0  0  0  0  0  0  0
  -12.5006    0.1082  -23.5872 C   0  0  0  0  0  0  0  0  0  0  0  0
  -11.1307   -0.1429  -23.6193 C   0  0  0  0  0  0  0  0  0  0  0  0
  -10.2601    0.8813  -24.2668 C   0  0  0  0  0  0  0  0  0  0  0  0
  -10.6488    2.0196  -24.4870 O   0  0  0  0  0  0  0  0  0  0  0  0
  1  2  1  0
  2  3  1  0
  3  4  2  0
  3  5  1  0
  5  6  1  0
  6  7  1  0
  8  7  1  6
  8  9  1  0
  9 10  2  0
  9 11  1  0
 11 12  1  0
 12 13  2  0
 13 14  1  0
 14 15  2  0
 15 16  1  0
 16 17  2  0
 17 18  1  0
 18 19  2  0
 19 20  1  0
 20 21  2  0
 11 22  1  0
 22 23  1  0
 23 24  1  6
 24 25  1  0
 25 26  1  0
 26 27  1  0
 26 28  1  0
  8 29  1  0
 29 30  2  0
 30 31  1  0
 31 32  1  0
 31 33  2  0
 33 34  1  0
 34 35  2  0
 35 36  1  0
 36 37  2  0
 36  6  1  0
 23  8  1  0
 35 29  1  0
 21 12  1  0
 21 16  1  0
M  END
$$$$

     RDKit          3D

 35 40  0  0  0  0  0  0  0  0999 V2000
   -8.4204   -3.8266  -23.7158 C   0  0  0  0  0  0  0  0  0  0  0  0
   -8.5153   -2.8245  -22.5754 C   0  0  1  0  0  0  0  0  0  0  0  0
   -7.2011   -2.5793  -21.8242 C   0  0  0  0  0  0  0  0  0  0  0  0
   -7.4873   -1.3389  -21.1271 N   0  0  0  0  0  0  0  0  0  0  0  0
   -6.6282   -0.8289  -20.1116 C   0  0  0  0  0  0  0  0  0  0  0  0
   -6.8502   -1.1878  -18.8028 C   0  0  0  0  0  0  0  0  0  0  0  0
   -6.0655   -0.8226  -17.7593 N   0  0  0  0  0  0  0  0  0  0  0  0
   -5.0405   -0.0510  -18.0204 C   0  0  0  0  0  0  0  0  0  0  0  0
   -4.7097    0.4220  -19.3208 C   0  0  0  0  0  0  0  0  0  0  0  0
   -3.6417    1.3361  -19.5205 C   0  0  0  0  0  0  0  0  0  0  0  0
   -3.3206    1.7525  -20.7779 C   0  0  0  0  0  0  0  0  0  0  0  0
   -4.0297    1.2622  -21.8944 C   0  0  0  0  0  0  0  0  0  0  0  0
   -5.0975    0.4120  -21.7244 C   0  0  0  0  0  0  0  0  0  0  0  0
   -5.4937   -0.0057  -20.4205 C   0  0  0  0  0  0  0  0  0  0  0  0
   -8.4759   -0.5947  -21.7409 C   0  0  0  0  0  0  0  0  0  0  0  0
   -8.7900    0.5328  -21.4248 O   0  0  0  0  0  0  0  0  0  0  0  0
   -9.0608   -1.4157  -22.9234 C   0  0  1  0  0  0  0  0  0  0  0  0
   -8.5048   -0.8051  -24.2410 C   0  0  0  0  0  0  0  0  0  0  0  0
   -8.9320    0.5808  -24.4067 N   0  0  0  0  0  0  0  0  0  0  0  0
   -8.1617    1.3830  -25.3665 C   0  0  0  0  0  0  0  0  0  0  0  0
   -8.1907    2.8768  -25.1717 C   0  0  0  0  0  0  0  0  0  0  0  0
   -8.6111    3.7090  -26.0937 N   0  0  0  0  0  0  0  0  0  0  0  0
   -8.5648    4.9495  -25.5071 C   0  0  0  0  0  0  0  0  0  0  0  0
   -8.0826    4.8520  -24.2298 C   0  0  0  0  0  0  0  0  0  0  0  0
   -7.8244    3.5153  -24.0283 N   0  0  0  0  0  0  0  0  0  0  0  0
   -7.1939    2.9290  -22.8602 C   0  0  0  0  0  0  0  0  0  0  0  0
  -10.2468    0.9120  -24.1801 C   0  0  0  0  0  0  0  0  0  0  0  0
  -10.7132    2.0066  -24.4501 O   0  0  0  0  0  0  0  0  0  0  0  0
  -11.1157   -0.1642  -23.5839 C   0  0  0  0  0  0  0  0  0  0  0  0
  -12.4888    0.0723  -23.5773 C   0  0  0  0  0  0  0  0  0  0  0  0
  -13.3598   -0.8643  -23.0677 C   0  0  0  0  0  0  0  0  0  0  0  0
  -12.8253   -2.0578  -22.6009 C   0  0  0  0  0  0  0  0  0  0  0  0
  -13.6775   -2.9746  -22.1090 F   0  0  0  0  0  0  0  0  0  0  0  0
  -11.4703   -2.3290  -22.5998 C   0  0  0  0  0  0  0  0  0  0  0  0
  -10.5737   -1.3354  -23.0356 C   0  0  0  0  0  0  0  0  0  0  0  0
  2  1  1  6
  2  3  1  0
  3  4  1  0
  4  5  1  0
  5  6  2  0
  6  7  1  0
  7  8  2  0
  8  9  1  0
  9 10  2  0
 10 11  1  0
 11 12  2  0
 12 13  1  0
 13 14  2  0
  4 15  1  0
 15 16  2  0
 15 17  1  0
 17 18  1  6
 18 19  1  0
 19 20  1  0
 20 21  1  0
 21 22  2  0
 22 23  1  0
 23 24  2  0
 24 25  1  0
 25 26  1  0
 19 27  1  0
 27 28  2  0
 27 29  1  0
 29 30  2  0
 30 31  1  0
 31 32  2  0
 32 33  1  0
 32 34  1  0
 34 35  2  0
 17  2  1  0
 25 21  1  0
 35 29  1  0
 14  5  1  0
 35 17  1  0
 14  9  1  0
M  END
$$$$

     RDKit          3D

 23 26  0  0  0  0  0  0  0  0999 V2000
    9.0369    3.1717   23.0292 C   0  0  0  0  0  0  0  0  0  0  0  0
    9.6566    2.0326   22.2205 C   0  0  1  0  0  0  0  0  0  0  0  0
   11.0186    1.6932   22.7308 C   0  0  0  0  0  0  0  0  0  0  0  0
   12.2512    2.3357   22.3900 C   0  0  0  0  0  0  0  0  0  0  0  0
   13.3201    1.7732   23.0192 C   0  0  0  0  0  0  0  0  0  0  0  0
   12.8165    0.5469   24.1266 S   0  0  0  0  0  0  0  0  0  0  0  0
   11.1632    0.7063   23.6509 C   0  0  0  0  0  0  0  0  0  0  0  0
    9.9970   -0.1009   24.1550 C   0  0  0  0  0  0  0  0  0  0  0  0
    9.0095   -0.3481   23.0083 C   0  0  0  0  0  0  0  0  0  0  0  0
    8.7947    0.8377   22.1700 N   0  0  0  0  0  0  0  0  0  0  0  0
    7.8132    0.8732   21.2107 C   0  0  0  0  0  0  0  0  0  0  0  0
    7.6897    1.8391   20.4680 O   0  0  0  0  0  0  0  0  0  0  0  0
    6.8881   -0.3431   21.0744 C   0  0  0  0  0  0  0  0  0  0  0  0
    5.8735   -0.1907   19.9694 C   0  0  0  0  0  0  0  0  0  0  0  0
    6.0683   -0.7900   18.7521 C   0  0  0  0  0  0  0  0  0  0  0  0
    5.2687   -0.6460   17.6635 N   0  0  0  0  0  0  0  0  0  0  0  0
    4.1972    0.0948   17.8108 C   0  0  0  0  0  0  0  0  0  0  0  0
    3.8336    0.7393   19.0237 C   0  0  0  0  0  0  0  0  0  0  0  0
    2.6485    1.5072   19.1412 C   0  0  0  0  0  0  0  0  0  0  0  0
    2.3170    2.0975   20.3306 C   0  0  0  0  0  0  0  0  0  0  0  0
    3.1943    1.9977   21.4333 C   0  0  0  0  0  0  0  0  0  0  0  0
    4.3673    1.2883   21.3328 C   0  0  0  0  0  0  0  0  0  0  0  0
    4.7029    0.6127   20.1302 C   0  0  0  0  0  0  0  0  0  0  0  0
  2  1  1  1
  2  3  1  0
  3  4  1  0
  4  5  2  0
  5  6  1  0
  6  7  1  0
  7  8  1  0
  8  9  1  0
  9 10  1  0
 10 11  1  0
 11 12  2  0
 11 13  1  0
 13 14  1  0
 14 15  2  0
 15 16  1  0
 16 17  2  0
 17 18  1  0
 18 19  2  0
 19 20  1  0
 20 21  2  0
 21 22  1  0
 22 23  2  0
 10  2  1  0
 23 14  1  0
  7  3  2  0
 23 18  1  0
M  END
$$$$

     RDKit          3D

 31 35  0  0  0  0  0  0  0  0999 V2000
   -8.3901   -4.0238  -23.6749 C   0  0  0  0  0  0  0  0  0  0  0  0
   -8.5949   -3.0947  -22.4850 C   0  0  1  0  0  0  0  0  0  0  0  0
   -7.2613   -2.5164  -21.9992 C   0  0  0  0  0  0  0  0  0  0  0  0
   -7.6648   -1.3475  -21.2545 N   0  0  0  0  0  0  0  0  0  0  0  0
   -6.8806   -0.8010  -20.2100 C   0  0  0  0  0  0  0  0  0  0  0  0
   -7.1945   -1.0541  -18.8987 C   0  0  0  0  0  0  0  0  0  0  0  0
   -6.4676   -0.6215  -17.8366 N   0  0  0  0  0  0  0  0  0  0  0  0
   -5.3952    0.0921  -18.0863 C   0  0  0  0  0  0  0  0  0  0  0  0
   -4.9496    0.4263  -19.3965 C   0  0  0  0  0  0  0  0  0  0  0  0
   -3.7969    1.2241  -19.6225 C   0  0  0  0  0  0  0  0  0  0  0  0
   -3.3905    1.5065  -20.8970 C   0  0  0  0  0  0  0  0  0  0  0  0
   -4.1116    1.0034  -22.0026 C   0  0  0  0  0  0  0  0  0  0  0  0
   -5.2384    0.2414  -21.8113 C   0  0  0  0  0  0  0  0  0  0  0  0
   -5.6941   -0.0545  -20.4990 C   0  0  0  0  0  0  0  0  0  0  0  0
   -8.9529   -0.9309  -21.5314 C   0  0  0  0  0  0  0  0  0  0  0  0
   -9.4870    0.0202  -21.0110 O   0  0  0  0  0  0  0  0  0  0  0  0
   -9.5429   -1.8685  -22.6369 C   0  0  1  0  0  0  0  0  0  0  0  0
   -9.3762   -1.2065  -24.0307 C   0  0  0  0  0  0  0  0  0  0  0  0
  -10.3165   -0.1234  -24.2563 N   0  0  0  0  0  0  0  0  0  0  0  0
   -9.8959    1.1429  -24.8172 C   0  0  0  0  0  0  0  0  0  0  0  0
  -10.0037    2.2261  -23.8256 C   0  0  0  0  0  0  0  0  0  0  0  0
  -10.1362    3.0609  -23.0414 N   0  0  0  0  0  0  0  0  0  0  0  0
  -11.6426   -0.2396  -23.9559 C   0  0  0  0  0  0  0  0  0  0  0  0
  -12.4807    0.5635  -24.3396 O   0  0  0  0  0  0  0  0  0  0  0  0
  -12.0099   -1.3548  -23.0576 C   0  0  0  0  0  0  0  0  0  0  0  0
  -13.3687   -1.4713  -22.7663 C   0  0  0  0  0  0  0  0  0  0  0  0
  -13.8055   -2.3956  -21.8487 C   0  0  0  0  0  0  0  0  0  0  0  0
  -12.8333   -3.2011  -21.2704 C   0  0  0  0  0  0  0  0  0  0  0  0
  -13.2307   -4.0493  -20.3126 F   0  0  0  0  0  0  0  0  0  0  0  0
  -11.4924   -3.1400  -21.5961 C   0  0  0  0  0  0  0  0  0  0  0  0
  -11.0287   -2.1492  -22.4558 C   0  0  0  0  0  0  0  0  0  0  0  0
  2  1  1  6
  2  3  1  0
  3  4  1  0
  4  5  1  0
  5  6  2  0
  6  7  1  0
  7  8  2  0
  8  9  1  0
  9 10  2  0
 10 11  1  0
 11 12  2  0
 12 13  1  0
 13 14  2  0
  4 15  1  0
 15 16  2  0
 15 17  1  0
 17 18  1  6
 18 19  1  0
 19 20  1  0
 20 21  1  0
 21 22  3  0
 19 23  1  0
 23 24  2  0
 23 25  1  0
 25 26  2  0
 26 27  1  0
 27 28  2  0
 28 29  1  0
 28 30  1  0
 30 31  2  0
 17  2  1  0
 31 25  1  0
 14  5  1  0
 31 17  1  0
 14  9  1  0
M  END
>  <cnnaffinities>  (11) 
[6.45167]

>  <score>  (11) 
6.45167

>  <index>  (11) 
46

>  <Smiles>  (11) 
C([C@]1(C(N(c2c(nc(c3c(c(c(c(c23)[H])[H])[H])[H])[H])[H])C(=O)[C@]21C(N(C(C#N)([H])[H])C(=O)c1c(c(c(F)c(c21)[H])[H])[H])([H])[H])([H])[H])[H])([H])([H])[H]

>  <h>  (11) 
<NA>

>  <Training>  (11) 
True

>  <Success>  (11) 
True

>  <enamine_searched>  (11) 
False

>  <enamine_id>  (11) 
nan

$$$$

     RDKit          3D

 36 40  0  0  0  0  0  0  0  0999 V2000
    6.7814    6.1007   20.9171 C   0  0  0  0  0  0  0  0  0  0  0  0
    7.8244    7.0882   21.4310 C   0  0  0  0  0  0  0  0  0  0  0  0
    8.0228    7.1259   22.9292 C   0  0  0  0  0  0  0  0  0  0  0  0
    8.2151    8.1263   23.5744 O   0  0  0  0  0  0  0  0  0  0  0  0
    7.9915    5.8499   23.6783 N   0  0  1  0  0  0  0  0  0  0  0  0
    6.5634    5.4982   24.1857 C   0  0  0  0  0  0  0  0  0  0  0  0
    6.5762    4.0809   24.6924 C   0  0  0  0  0  0  0  0  0  0  0  0
    6.9755    3.1225   23.5778 C   0  0  0  0  0  0  0  0  0  0  0  0
    8.3542    3.4279   23.0311 C   0  0  0  0  0  0  0  0  0  0  0  0
    9.1766    2.4521   22.4325 C   0  0  0  0  0  0  0  0  0  0  0  0
    8.6705    1.1366   22.1694 N   0  0  0  0  0  0  0  0  0  0  0  0
    9.1355    0.0762   23.0528 C   0  0  0  0  0  0  0  0  0  0  0  0
   10.5552   -0.3869   22.7724 C   0  0  0  0  0  0  0  0  0  0  0  0
   11.5563   -0.1075   23.7033 C   0  0  0  0  0  0  0  0  0  0  0  0
   12.8817   -0.4412   23.4551 C   0  0  0  0  0  0  0  0  0  0  0  0
   13.2305   -1.1249   22.2987 C   0  0  0  0  0  0  0  0  0  0  0  0
   12.2199   -1.4723   21.4135 C   0  0  0  0  0  0  0  0  0  0  0  0
   12.6338   -2.4413   20.0341 Cl  0  0  0  0  0  0  0  0  0  0  0  0
   10.8982   -1.0859   21.6144 C   0  0  0  0  0  0  0  0  0  0  0  0
    7.7542    1.0152   21.1413 C   0  0  0  0  0  0  0  0  0  0  0  0
    7.5991    1.9074   20.3315 O   0  0  0  0  0  0  0  0  0  0  0  0
    6.9229   -0.2778   21.0787 C   0  0  0  0  0  0  0  0  0  0  0  0
    5.8909   -0.1821   19.9968 C   0  0  0  0  0  0  0  0  0  0  0  0
    6.0989   -0.7737   18.7795 C   0  0  0  0  0  0  0  0  0  0  0  0
    5.2922   -0.6421   17.6937 N   0  0  0  0  0  0  0  0  0  0  0  0
    4.2237    0.1060   17.8386 C   0  0  0  0  0  0  0  0  0  0  0  0
    3.8689    0.7652   19.0472 C   0  0  0  0  0  0  0  0  0  0  0  0
    2.7043    1.5647   19.1579 C   0  0  0  0  0  0  0  0  0  0  0  0
    2.3759    2.1641   20.3433 C   0  0  0  0  0  0  0  0  0  0  0  0
    3.2329    2.0332   21.4597 C   0  0  0  0  0  0  0  0  0  0  0  0
    4.3850    1.2911   21.3684 C   0  0  0  0  0  0  0  0  0  0  0  0
    4.7259    0.6227   20.1622 C   0  0  0  0  0  0  0  0  0  0  0  0
   10.5032    2.7301   22.1308 C   0  0  0  0  0  0  0  0  0  0  0  0
   10.9941    4.0236   22.2724 C   0  0  0  0  0  0  0  0  0  0  0  0
   10.1697    5.0224   22.7756 C   0  0  0  0  0  0  0  0  0  0  0  0
    8.8519    4.7235   23.1289 C   0  0  0  0  0  0  0  0  0  0  0  0
  1  2  1  0
  2  3  1  0
  3  4  2  0
  5  3  1  6
  5  6  1  0
  6  7  1  0
  7  8  1  0
  8  9  1  0
  9 10  2  0
 10 11  1  0
 11 12  1  0
 12 13  1  0
 13 14  2  0
 14 15  1  0
 15 16  2  0
 16 17  1  0
 17 18  1  0
 17 19  2  0
 11 20  1  0
 20 21  2  0
 20 22  1  0
 22 23  1  0
 23 24  2  0
 24 25  1  0
 25 26  2  0
 26 27  1  0
 27 28  2  0
 28 29  1  0
 29 30  2  0
 30 31  1  0
 31 32  2  0
 10 33  1  0
 33 34  2  0
 34 35  1  0
 35 36  2  0
 36  5  1  0
 36  9  1  0
 19 13  1  0
 32 23  1  0
 32 27  1  0
M  CHG  1   5   1
M  END
>  <cnnaffinities>  (12) 
[6.28992]

>  <score>  (12) 
6.28992

>  <index>  (12) 
6

>  <Smiles>  (12) 
C(C(C(=O)[N@+]1(C(C(C(c2c(N(C(c3c(c(c(c(Cl)c3[H])[H])[H])[H])([H])[H])C(=O)C(c3c(nc(c4c(c(c(c(c34)[H])[H])[H])[H])[H])[H])([H])[H])c(c(c(c12)[H])[H])[H])([H])[H])([H])[H])([H])[H])[H])([H])[H])([H])([H])[H]

>  <h>  (12) 
<NA>

>  <Training>  (12) 
True

>  <Success>  (12) 
True

>  <enamine_searched>  (12) 
False

>  <enamine_id>  (12) 
nan

$$$$

     RDKit          3D

 36 39  0  0  0  0  0  0  0  0999 V2000
   -4.7820   -3.0055  -22.4018 C   0  0  0  0  0  0  0  0  0  0  0  0
   -6.0650   -3.3459  -22.3359 C   0  0  0  0  0  0  0  0  0  0  0  0
   -7.0322   -3.0600  -21.2179 C   0  0  0  0  0  0  0  0  0  0  0  0
   -7.2912   -1.6266  -21.0610 N   0  0  0  0  0  0  0  0  0  0  0  0
   -8.2115   -0.9116  -21.8145 C   0  0  0  0  0  0  0  0  0  0  0  0
   -8.4912    0.2359  -21.5055 O   0  0  0  0  0  0  0  0  0  0  0  0
   -8.8462   -1.5177  -23.0879 C   0  0  2  0  0  0  0  0  0  0  0  0
   -8.2112   -0.8647  -24.3358 C   0  0  0  0  0  0  0  0  0  0  0  0
   -8.6900    0.4972  -24.5467 N   0  0  0  0  0  0  0  0  0  0  0  0
   -7.8320    1.4565  -25.2032 C   0  0  0  0  0  0  0  0  0  0  0  0
   -7.2885    2.6147  -24.3547 C   0  0  0  0  0  0  0  0  0  0  0  0
   -6.5929    3.4563  -24.9058 O   0  0  0  0  0  0  0  0  0  0  0  0
   -7.5879    2.6420  -23.0371 N   0  0  0  0  0  0  0  0  0  0  0  0
   -6.8914    3.5865  -22.1888 C   0  0  0  0  0  0  0  0  0  0  0  0
   -9.9826    0.8904  -24.3104 C   0  0  0  0  0  0  0  0  0  0  0  0
  -10.3752    2.0205  -24.5672 O   0  0  0  0  0  0  0  0  0  0  0  0
  -10.8732   -0.1288  -23.6810 C   0  0  0  0  0  0  0  0  0  0  0  0
  -12.2429    0.1337  -23.6326 C   0  0  0  0  0  0  0  0  0  0  0  0
  -13.1058   -0.7762  -23.0516 C   0  0  0  0  0  0  0  0  0  0  0  0
  -12.5783   -1.9513  -22.5156 C   0  0  0  0  0  0  0  0  0  0  0  0
  -13.6438   -3.0848  -21.7299 Cl  0  0  0  0  0  0  0  0  0  0  0  0
  -11.2165   -2.2149  -22.5550 C   0  0  0  0  0  0  0  0  0  0  0  0
  -10.3435   -1.2892  -23.1259 C   0  0  0  0  0  0  0  0  0  0  0  0
   -6.5762   -0.9400  -20.0268 C   0  0  0  0  0  0  0  0  0  0  0  0
   -6.8883   -1.2073  -18.7152 C   0  0  0  0  0  0  0  0  0  0  0  0
   -6.2065   -0.7455  -17.6411 N   0  0  0  0  0  0  0  0  0  0  0  0
   -5.1681    0.0196  -17.8718 C   0  0  0  0  0  0  0  0  0  0  0  0
   -4.7510    0.4192  -19.1742 C   0  0  0  0  0  0  0  0  0  0  0  0
   -3.6300    1.2737  -19.3643 C   0  0  0  0  0  0  0  0  0  0  0  0
   -3.2132    1.6036  -20.6231 C   0  0  0  0  0  0  0  0  0  0  0  0
   -3.8915    1.0942  -21.7521 C   0  0  0  0  0  0  0  0  0  0  0  0
   -5.0021    0.2925  -21.5929 C   0  0  0  0  0  0  0  0  0  0  0  0
   -5.4710   -0.0664  -20.2968 C   0  0  0  0  0  0  0  0  0  0  0  0
   -6.7788   -3.9725  -23.5365 C   0  0  0  0  0  0  0  0  0  0  0  0
   -7.9632   -4.3280  -23.3437 O   0  0  0  0  0  0  0  0  0  0  0  0
   -6.1229   -4.0454  -24.5928 O   0  0  0  0  0  0  0  0  0  0  0  0
  1  2  2  0
  2  3  1  0
  3  4  1  0
  4  5  1  0
  5  6  2  0
  7  5  1  1
  7  8  1  0
  8  9  1  0
  9 10  1  0
 10 11  1  0
 11 12  2  0
 11 13  1  0
 13 14  1  0
  9 15  1  0
 15 16  2  0
 15 17  1  0
 17 18  2  0
 18 19  1  0
 19 20  2  0
 20 21  1  0
 20 22  1  0
 22 23  2  0
  4 24  1  0
 24 25  2  0
 25 26  1  0
 26 27  2  0
 27 28  1  0
 28 29  2  0
 29 30  1  0
 30 31  2  0
 31 32  1  0
 32 33  2  0
  2 34  1  0
 34 35  2  0
 34 36  1  0
 23  7  1  0
 33 24  1  0
 23 17  1  0
 33 28  1  0
M  CHG  1  36  -1
M  END
$$$$

     RDKit          3D

 19 21  0  0  0  0  0  0  0  0999 V2000
    5.7521   -0.1208   23.5709 O   0  0  0  0  0  0  0  0  0  0  0  0
    6.3166   -0.7281   22.6705 C   0  0  0  0  0  0  0  0  0  0  0  0
    6.7004    0.0553   21.3963 C   0  0  0  0  0  0  0  0  0  0  0  0
    5.7715    0.0306   20.1933 C   0  0  0  0  0  0  0  0  0  0  0  0
    6.1144   -0.5804   19.0091 C   0  0  0  0  0  0  0  0  0  0  0  0
    5.4184   -0.4933   17.8456 N   0  0  0  0  0  0  0  0  0  0  0  0
    4.3230    0.2260   17.8491 C   0  0  0  0  0  0  0  0  0  0  0  0
    3.8338    0.9128   18.9959 C   0  0  0  0  0  0  0  0  0  0  0  0
    2.6631    1.7126   18.9556 C   0  0  0  0  0  0  0  0  0  0  0  0
    2.2130    2.3401   20.0861 C   0  0  0  0  0  0  0  0  0  0  0  0
    2.9206    2.1951   21.3024 C   0  0  0  0  0  0  0  0  0  0  0  0
    4.0622    1.4390   21.3696 C   0  0  0  0  0  0  0  0  0  0  0  0
    4.5567    0.7885   20.2057 C   0  0  0  0  0  0  0  0  0  0  0  0
    6.6612   -2.0386   22.8173 N   0  0  0  0  0  0  0  0  0  0  0  0
    6.5566   -2.6447   24.1473 C   0  0  0  0  0  0  0  0  0  0  0  0
    7.9382   -3.0189   24.6829 C   0  0  0  0  0  0  0  0  0  0  0  0
    8.6958   -3.9084   23.6947 C   0  0  0  0  0  0  0  0  0  0  0  0
    8.7175   -3.2904   22.2906 C   0  0  0  0  0  0  0  0  0  0  0  0
    7.3220   -2.8793   21.8274 C   0  0  0  0  0  0  0  0  0  0  0  0
  1  2  2  0
  2  3  1  0
  3  4  1  0
  4  5  2  0
  5  6  1  0
  6  7  2  0
  7  8  1  0
  8  9  2  0
  9 10  1  0
 10 11  2  0
 11 12  1  0
 12 13  2  0
  2 14  1  0
 14 15  1  0
 15 16  1  0
 16 17  1  0
 17 18  1  0
 18 19  1  0
 13  4  1  0
 19 14  1  0
 13  8  1  0
M  END
$$$$

     RDKit          3D

 21 23  0  0  0  0  0  0  0  0999 V2000
   -7.6906   -0.4747  -26.6356 C   0  0  0  0  0  0  0  0  0  0  0  0
   -8.8920   -0.7694  -25.7282 C   0  0  0  0  0  0  0  0  0  0  0  0
   -8.6728   -2.0026  -24.8208 C   0  0  0  0  0  0  0  0  0  0  0  0
   -9.8616   -2.1061  -23.8170 C   0  0  0  0  0  0  0  0  0  0  0  0
   -9.5769   -2.9766  -22.5875 C   0  0  0  0  0  0  0  0  0  0  0  0
   -8.2799   -2.5616  -22.0504 N   0  0  0  0  0  0  0  0  0  0  0  0
   -8.2076   -1.3543  -21.3509 C   0  0  0  0  0  0  0  0  0  0  0  0
   -9.2463   -0.8232  -20.9963 O   0  0  0  0  0  0  0  0  0  0  0  0
   -6.9375   -0.4875  -21.3275 C   0  0  0  0  0  0  0  0  0  0  0  0
   -6.1020   -0.3709  -20.0475 C   0  0  0  0  0  0  0  0  0  0  0  0
   -6.5199   -0.8021  -18.7709 C   0  0  0  0  0  0  0  0  0  0  0  0
   -5.7690   -0.6494  -17.6616 N   0  0  0  0  0  0  0  0  0  0  0  0
   -4.5647   -0.0579  -17.7694 C   0  0  0  0  0  0  0  0  0  0  0  0
   -4.0442    0.3840  -18.9914 C   0  0  0  0  0  0  0  0  0  0  0  0
   -2.7631    0.9643  -19.0890 C   0  0  0  0  0  0  0  0  0  0  0  0
   -2.2808    1.3958  -20.3359 C   0  0  0  0  0  0  0  0  0  0  0  0
   -3.0775    1.2732  -21.4829 C   0  0  0  0  0  0  0  0  0  0  0  0
   -4.3525    0.7061  -21.3747 C   0  0  0  0  0  0  0  0  0  0  0  0
   -4.8402    0.2395  -20.1436 C   0  0  0  0  0  0  0  0  0  0  0  0
   -7.1871   -2.8969  -22.9447 C   0  0  0  0  0  0  0  0  0  0  0  0
   -7.2974   -1.9120  -24.1111 C   0  0  0  0  0  0  0  0  0  0  0  0
  1  2  1  0
  2  3  1  0
  3  4  1  0
  4  5  1  0
  5  6  1  0
  6  7  1  0
  7  8  2  0
  7  9  1  0
  9 10  1  0
 10 11  2  0
 11 12  1  0
 12 13  2  0
 13 14  1  0
 14 15  2  0
 15 16  1  0
 16 17  2  0
 17 18  1  0
 18 19  2  0
  6 20  1  0
 20 21  1  0
 21  3  1  0
 19 10  1  0
 19 14  1  0
M  END
$$$$

     RDKit          3D

 26 29  0  0  0  0  0  0  0  0999 V2000
   13.2074   -2.3690   24.0639 C   0  0  0  0  0  0  0  0  0  0  0  0
   12.8064   -1.3340   23.0233 C   0  0  0  0  0  0  0  0  0  0  0  0
   11.3675   -0.4106   23.5544 S   0  0  0  0  0  0  0  0  0  0  0  0
   10.9501    0.5023   22.5143 O   0  0  0  0  0  0  0  0  0  0  0  0
   11.7247    0.1634   24.8272 O   0  0  0  0  0  0  0  0  0  0  0  0
   10.1892   -1.5954   23.8281 N   0  0  0  0  0  0  0  0  0  0  0  0
    9.6609   -2.4215   22.7154 C   0  0  0  0  0  0  0  0  0  0  0  0
    8.2406   -1.8580   22.9698 C   0  0  0  0  0  0  0  0  0  0  0  0
    8.8276   -1.1088   24.1853 C   0  0  0  0  0  0  0  0  0  0  0  0
    7.7785   -0.9075   21.8815 C   0  0  0  0  0  0  0  0  0  0  0  0
    8.3466    0.0612   21.4599 O   0  0  0  0  0  0  0  0  0  0  0  0
    6.5366   -1.3787   21.4520 N   0  0  0  0  0  0  0  0  0  0  0  0
    5.8185   -0.8295   20.3529 C   0  0  0  0  0  0  0  0  0  0  0  0
    6.2656   -1.0760   19.0810 C   0  0  0  0  0  0  0  0  0  0  0  0
    5.6755   -0.6180   17.9482 N   0  0  0  0  0  0  0  0  0  0  0  0
    4.6163    0.1404   18.1020 C   0  0  0  0  0  0  0  0  0  0  0  0
    4.0473    0.4784   19.3631 C   0  0  0  0  0  0  0  0  0  0  0  0
    2.9020    1.3108   19.4473 C   0  0  0  0  0  0  0  0  0  0  0  0
    2.3678    1.6329   20.6628 C   0  0  0  0  0  0  0  0  0  0  0  0
    2.9622    1.1440   21.8496 C   0  0  0  0  0  0  0  0  0  0  0  0
    4.0813    0.3450   21.7975 C   0  0  0  0  0  0  0  0  0  0  0  0
    4.6532   -0.0156   20.5407 C   0  0  0  0  0  0  0  0  0  0  0  0
    6.1377   -2.5238   22.1623 C   0  0  0  0  0  0  0  0  0  0  0  0
    5.1373   -3.1702   21.9642 O   0  0  0  0  0  0  0  0  0  0  0  0
    7.1154   -2.7436   23.0990 N   0  0  0  0  0  0  0  0  0  0  0  0
    7.0373   -3.8297   24.0471 C   0  0  0  0  0  0  0  0  0  0  0  0
  1  2  1  0
  2  3  1  0
  3  4  2  0
  3  5  2  0
  3  6  1  0
  6  7  1  0
  7  8  1  0
  8  9  1  0
  8 10  1  0
 10 11  2  0
 10 12  1  0
 12 13  1  0
 13 14  2  0
 14 15  1  0
 15 16  2  0
 16 17  1  0
 17 18  2  0
 18 19  1  0
 19 20  2  0
 20 21  1  0
 21 22  2  0
 12 23  1  0
 23 24  2  0
 23 25  1  0
 25 26  1  0
  9  6  1  0
 22 13  1  0
 25  8  1  0
 22 17  1  0
M  END
$$$$

     RDKit          3D

 35 39  0  0  0  0  0  0  0  0999 V2000
   -7.0212    3.6296  -22.4835 C   0  0  0  0  0  0  0  0  0  0  0  0
   -7.7852    2.6763  -23.2617 N   0  0  0  0  0  0  0  0  0  0  0  0
   -7.4950    2.5179  -24.5719 C   0  0  0  0  0  0  0  0  0  0  0  0
   -6.7268    3.2444  -25.1894 O   0  0  0  0  0  0  0  0  0  0  0  0
   -8.1623    1.3608  -25.3237 C   0  0  0  0  0  0  0  0  0  0  0  0
   -8.9883    0.4613  -24.5592 N   0  0  0  0  0  0  0  0  0  0  0  0
   -8.5110   -0.8831  -24.2813 C   0  0  0  0  0  0  0  0  0  0  0  0
   -9.0682   -1.4178  -22.9378 C   0  0  2  0  0  0  0  0  0  0  0  0
   -8.4693   -0.5715  -21.7846 C   0  0  0  0  0  0  0  0  0  0  0  0
   -8.7600    0.5809  -21.5111 O   0  0  0  0  0  0  0  0  0  0  0  0
   -7.5089   -1.3086  -21.1364 N   0  0  0  0  0  0  0  0  0  0  0  0
   -6.6589   -0.7872  -20.1185 C   0  0  0  0  0  0  0  0  0  0  0  0
   -6.8838   -1.1482  -18.8129 C   0  0  0  0  0  0  0  0  0  0  0  0
   -6.1138   -0.7659  -17.7650 N   0  0  0  0  0  0  0  0  0  0  0  0
   -5.0875    0.0102  -18.0134 C   0  0  0  0  0  0  0  0  0  0  0  0
   -4.7427    0.4717  -19.3161 C   0  0  0  0  0  0  0  0  0  0  0  0
   -3.6586    1.3640  -19.5279 C   0  0  0  0  0  0  0  0  0  0  0  0
   -3.3266    1.7600  -20.7923 C   0  0  0  0  0  0  0  0  0  0  0  0
   -4.0563    1.2857  -21.9043 C   0  0  0  0  0  0  0  0  0  0  0  0
   -5.1383    0.4586  -21.7228 C   0  0  0  0  0  0  0  0  0  0  0  0
   -5.5286    0.0460  -20.4162 C   0  0  0  0  0  0  0  0  0  0  0  0
   -7.2255   -2.5638  -21.8066 C   0  0  0  0  0  0  0  0  0  0  0  0
   -8.5276   -2.8257  -22.5683 C   0  0  2  0  0  0  0  0  0  0  0  0
   -8.3709   -3.8226  -23.7145 C   0  0  0  0  0  0  0  0  0  0  0  0
   -9.5947   -4.0297  -24.3935 O   0  0  0  0  0  0  0  0  0  0  0  0
  -10.3078   -5.1667  -23.9691 C   0  0  0  0  0  0  0  0  0  0  0  0
  -10.5768   -1.3043  -23.0410 C   0  0  0  0  0  0  0  0  0  0  0  0
  -11.4649   -2.2623  -22.5444 C   0  0  0  0  0  0  0  0  0  0  0  0
  -12.8206   -1.9913  -22.5080 C   0  0  0  0  0  0  0  0  0  0  0  0
  -13.8691   -3.1378  -21.7131 Cl  0  0  0  0  0  0  0  0  0  0  0  0
  -13.3599   -0.8125  -23.0230 C   0  0  0  0  0  0  0  0  0  0  0  0
  -12.4963    0.1023  -23.5881 C   0  0  0  0  0  0  0  0  0  0  0  0
  -11.1273   -0.1495  -23.6154 C   0  0  0  0  0  0  0  0  0  0  0  0
  -10.2539    0.8743  -24.2552 C   0  0  0  0  0  0  0  0  0  0  0  0
  -10.6421    2.0171  -24.4796 O   0  0  0  0  0  0  0  0  0  0  0  0
  1  2  1  0
  2  3  1  0
  3  4  2  0
  3  5  1  0
  5  6  1  0
  6  7  1  0
  8  7  1  6
  8  9  1  0
  9 10  2  0
  9 11  1  0
 11 12  1  0
 12 13  2  0
 13 14  1  0
 14 15  2  0
 15 16  1  0
 16 17  2  0
 17 18  1  0
 18 19  2  0
 19 20  1  0
 20 21  2  0
 11 22  1  0
 22 23  1  0
 23 24  1  6
 24 25  1  0
 25 26  1  0
  8 27  1  0
 27 28  2  0
 28 29  1  0
 29 30  1  0
 29 31  2  0
 31 32  1  0
 32 33  2  0
 33 34  1  0
 34 35  2  0
 34  6  1  0
 23  8  1  0
 33 27  1  0
 21 12  1  0
 21 16  1  0
M  END
$$$$

     RDKit          3D

 38 43  0  0  0  0  0  0  0  0999 V2000
    9.8371   -1.5725   21.9330 C   0  0  0  0  0  0  0  0  0  0  0  0
    8.7866   -0.5001   22.2469 C   0  0  1  0  0  0  0  0  0  0  0  0
    8.1316   -0.0313   20.9335 C   0  0  0  0  0  0  0  0  0  0  0  0
    6.7523   -0.4474   21.0374 N   0  0  0  0  0  0  0  0  0  0  0  0
    5.8468   -0.2159   19.9892 C   0  0  0  0  0  0  0  0  0  0  0  0
    6.0889   -0.7675   18.7588 C   0  0  0  0  0  0  0  0  0  0  0  0
    5.2890   -0.6129   17.6812 N   0  0  0  0  0  0  0  0  0  0  0  0
    4.2125    0.1217   17.8428 C   0  0  0  0  0  0  0  0  0  0  0  0
    3.8589    0.7619   19.0669 C   0  0  0  0  0  0  0  0  0  0  0  0
    2.6920    1.5596   19.1785 C   0  0  0  0  0  0  0  0  0  0  0  0
    2.3812    2.1745   20.3592 C   0  0  0  0  0  0  0  0  0  0  0  0
    3.2503    2.0671   21.4672 C   0  0  0  0  0  0  0  0  0  0  0  0
    4.3996    1.3217   21.3880 C   0  0  0  0  0  0  0  0  0  0  0  0
    4.7060    0.6167   20.1829 C   0  0  0  0  0  0  0  0  0  0  0  0
    6.4068   -1.0486   22.2188 C   0  0  0  0  0  0  0  0  0  0  0  0
    5.3334   -1.5828   22.4489 O   0  0  0  0  0  0  0  0  0  0  0  0
    7.6011   -0.9306   23.1821 C   0  0  1  0  0  0  0  0  0  0  0  0
    7.8151   -2.2972   23.8549 C   0  0  0  0  0  0  0  0  0  0  0  0
    6.8082   -2.5447   24.8682 N   0  0  0  0  0  0  0  0  0  0  0  0
    6.2702   -3.8806   25.0160 C   0  0  0  0  0  0  0  0  0  0  0  0
    4.8498   -3.9190   25.5654 C   0  0  0  0  0  0  0  0  0  0  0  0
    4.6095   -4.5989   26.5493 O   0  0  0  0  0  0  0  0  0  0  0  0
    3.8650   -3.2361   24.8941 N   0  0  0  0  0  0  0  0  0  0  0  0
    2.6646   -2.9967   25.6968 C   0  0  0  0  0  0  0  0  0  0  0  0
    2.8727   -1.8463   26.6379 C   0  0  0  0  0  0  0  0  0  0  0  0
    2.9439   -1.8274   28.0155 C   0  0  0  0  0  0  0  0  0  0  0  0
    3.1941   -0.4826   28.3426 C   0  0  0  0  0  0  0  0  0  0  0  0
    3.3058    0.2686   27.2544 N   0  0  0  0  0  0  0  0  0  0  0  0
    3.1074   -0.5709   26.2239 N   0  0  0  0  0  0  0  0  0  0  0  0
    3.2200   -0.0306   24.8802 C   0  0  0  0  0  0  0  0  0  0  0  0
    6.7291   -1.6631   25.9218 C   0  0  0  0  0  0  0  0  0  0  0  0
    6.4777   -2.0046   27.0647 O   0  0  0  0  0  0  0  0  0  0  0  0
    6.9255   -0.2319   25.5445 C   0  0  0  0  0  0  0  0  0  0  0  0
    6.6575    0.7370   26.5104 C   0  0  0  0  0  0  0  0  0  0  0  0
    6.7302    2.0802   26.1919 C   0  0  0  0  0  0  0  0  0  0  0  0
    7.0684    2.4489   24.8920 C   0  0  0  0  0  0  0  0  0  0  0  0
    7.3304    1.4851   23.9317 C   0  0  0  0  0  0  0  0  0  0  0  0
    7.2893    0.1208   24.2452 C   0  0  0  0  0  0  0  0  0  0  0  0
  2  1  1  6
  2  3  1  0
  3  4  1  0
  4  5  1  0
  5  6  2  0
  6  7  1  0
  7  8  2  0
  8  9  1  0
  9 10  2  0
 10 11  1  0
 11 12  2  0
 12 13  1  0
 13 14  2  0
  4 15  1  0
 15 16  2  0
 15 17  1  0
 17 18  1  1
 18 19  1  0
 19 20  1  0
 20 21  1  0
 21 22  2  0
 21 23  1  0
 23 24  1  0
 24 25  1  0
 25 26  2  0
 26 27  1  0
 27 28  2  0
 28 29  1  0
 29 30  1  0
 19 31  1  0
 31 32  2  0
 31 33  1  0
 33 34  2  0
 34 35  1  0
 35 36  2  0
 36 37  1  0
 37 38  2  0
 17  2  1  0
 29 25  1  0
 38 33  1  0
 14  5  1  0
 38 17  1  0
 14  9  1  0
M  END
>  <cnnaffinities>  (18) 
[6.11294, 6.1907, 6.05909, 6.13699]

>  <score>  (18) 
6.11294

>  <index>  (18) 
8

>  <Smiles>  (18) 
C([C@]1(C(N(c2c(nc(c3c(c(c(c(c23)[H])[H])[H])[H])[H])[H])C(=O)[C@]21C(N(C(C(=O)N(C(c1c(c(nn1C([H])([H])[H])[H])[H])([H])[H])[H])([H])[H])C(=O)c1c(c(c(c(c21)[H])[H])[H])[H])([H])[H])([H])[H])[H])([H])([H])[H]

>  <h>  (18) 
<NA>

>  <Training>  (18) 
True

>  <Success>  (18) 
True

>  <enamine_searched>  (18) 
False

>  <enamine_id>  (18) 
nan

$$$$

     RDKit          3D

 21 23  0  0  0  0  0  0  0  0999 V2000
  -12.8759   -3.7089  -23.8163 C   0  0  0  0  0  0  0  0  0  0  0  0
  -11.6563   -2.7953  -23.8654 C   0  0  1  0  0  0  0  0  0  0  0  0
  -12.0194   -1.3977  -23.4117 C   0  0  0  0  0  0  0  0  0  0  0  0
  -11.1939   -0.3559  -23.4365 C   0  0  0  0  0  0  0  0  0  0  0  0
   -9.7558   -0.4685  -23.8846 C   0  0  0  0  0  0  0  0  0  0  0  0
   -8.9290   -1.4222  -23.1383 N   0  0  0  0  0  0  0  0  0  0  0  0
   -8.4867   -0.9911  -21.9037 C   0  0  0  0  0  0  0  0  0  0  0  0
   -8.9889   -0.0190  -21.3793 O   0  0  0  0  0  0  0  0  0  0  0  0
   -7.3010   -1.7579  -21.3022 C   0  0  0  0  0  0  0  0  0  0  0  0
   -6.5247   -1.0272  -20.2344 C   0  0  0  0  0  0  0  0  0  0  0  0
   -6.8935   -1.1808  -18.9211 C   0  0  0  0  0  0  0  0  0  0  0  0
   -6.2624   -0.6447  -17.8459 N   0  0  0  0  0  0  0  0  0  0  0  0
   -5.2094    0.0995  -18.0869 C   0  0  0  0  0  0  0  0  0  0  0  0
   -4.7150    0.3775  -19.3931 C   0  0  0  0  0  0  0  0  0  0  0  0
   -3.5743    1.2012  -19.5994 C   0  0  0  0  0  0  0  0  0  0  0  0
   -3.0884    1.4115  -20.8620 C   0  0  0  0  0  0  0  0  0  0  0  0
   -3.7348    0.8229  -21.9715 C   0  0  0  0  0  0  0  0  0  0  0  0
   -4.8546    0.0415  -21.8021 C   0  0  0  0  0  0  0  0  0  0  0  0
   -5.3812   -0.2081  -20.5028 C   0  0  0  0  0  0  0  0  0  0  0  0
   -9.1121   -2.8342  -23.4406 C   0  0  0  0  0  0  0  0  0  0  0  0
  -10.4841   -3.4039  -23.0702 C   0  0  0  0  0  0  0  0  0  0  0  0
  2  1  1  1
  2  3  1  0
  3  4  2  0
  4  5  1  0
  5  6  1  0
  6  7  1  0
  7  8  2  0
  7  9  1  0
  9 10  1  0
 10 11  2  0
 11 12  1  0
 12 13  2  0
 13 14  1  0
 14 15  2  0
 15 16  1  0
 16 17  2  0
 17 18  1  0
 18 19  2  0
  6 20  1  0
 20 21  1  0
 21  2  1  0
 19 10  1  0
 19 14  1  0
M  END
$$$$

     RDKit          3D

 34 39  0  0  0  0  0  0  0  0999 V2000
   -8.4168   -3.8202  -23.7210 C   0  0  0  0  0  0  0  0  0  0  0  0
   -8.5392   -2.8340  -22.5619 C   0  0  1  0  0  0  0  0  0  0  0  0
   -7.2210   -2.5731  -21.8072 C   0  0  0  0  0  0  0  0  0  0  0  0
   -7.4946   -1.3044  -21.1475 N   0  0  0  0  0  0  0  0  0  0  0  0
   -6.6746   -0.7616  -20.1161 C   0  0  0  0  0  0  0  0  0  0  0  0
   -6.9116   -1.1029  -18.8078 C   0  0  0  0  0  0  0  0  0  0  0  0
   -6.1523   -0.7080  -17.7551 N   0  0  0  0  0  0  0  0  0  0  0  0
   -5.1355    0.0822  -17.9969 C   0  0  0  0  0  0  0  0  0  0  0  0
   -4.7671    0.5150  -19.3063 C   0  0  0  0  0  0  0  0  0  0  0  0
   -3.6728    1.3928  -19.5297 C   0  0  0  0  0  0  0  0  0  0  0  0
   -3.3232    1.7656  -20.7975 C   0  0  0  0  0  0  0  0  0  0  0  0
   -4.0510    1.2743  -21.9070 C   0  0  0  0  0  0  0  0  0  0  0  0
   -5.1432    0.4625  -21.7156 C   0  0  0  0  0  0  0  0  0  0  0  0
   -5.5404    0.0704  -20.4073 C   0  0  0  0  0  0  0  0  0  0  0  0
   -8.4877   -0.5717  -21.7705 C   0  0  0  0  0  0  0  0  0  0  0  0
   -8.7940    0.5642  -21.4802 O   0  0  0  0  0  0  0  0  0  0  0  0
   -9.0868   -1.4243  -22.9242 C   0  0  1  0  0  0  0  0  0  0  0  0
   -8.5342   -0.9064  -24.2683 C   0  0  0  0  0  0  0  0  0  0  0  0
   -9.0058    0.4331  -24.5611 N   0  0  0  0  0  0  0  0  0  0  0  0
   -8.1377    1.3121  -25.3139 C   0  0  0  0  0  0  0  0  0  0  0  0
   -7.2910    2.2341  -24.4795 C   0  0  0  0  0  0  0  0  0  0  0  0
   -6.0136    2.6431  -24.6994 C   0  0  0  0  0  0  0  0  0  0  0  0
   -5.7007    3.5682  -23.7233 N   0  0  0  0  0  0  0  0  0  0  0  0
   -6.7625    3.7020  -22.9155 C   0  0  0  0  0  0  0  0  0  0  0  0
   -7.7447    2.9026  -23.3568 N   0  0  0  0  0  0  0  0  0  0  0  0
  -10.2592    0.8742  -24.2565 C   0  0  0  0  0  0  0  0  0  0  0  0
  -10.6227    2.0243  -24.4961 O   0  0  0  0  0  0  0  0  0  0  0  0
  -11.1471   -0.1317  -23.5942 C   0  0  0  0  0  0  0  0  0  0  0  0
  -12.5184    0.1165  -23.5618 C   0  0  0  0  0  0  0  0  0  0  0  0
  -13.3798   -0.7830  -22.9632 C   0  0  0  0  0  0  0  0  0  0  0  0
  -12.8274   -1.9393  -22.4212 C   0  0  0  0  0  0  0  0  0  0  0  0
  -13.6230   -2.7716  -21.7246 F   0  0  0  0  0  0  0  0  0  0  0  0
  -11.4769   -2.2243  -22.4798 C   0  0  0  0  0  0  0  0  0  0  0  0
  -10.5967   -1.2891  -23.0223 C   0  0  0  0  0  0  0  0  0  0  0  0
  2  1  1  6
  2  3  1  0
  3  4  1  0
  4  5  1  0
  5  6  2  0
  6  7  1  0
  7  8  2  0
  8  9  1  0
  9 10  2  0
 10 11  1  0
 11 12  2  0
 12 13  1  0
 13 14  2  0
  4 15  1  0
 15 16  2  0
 15 17  1  0
 17 18  1  6
 18 19  1  0
 19 20  1  0
 20 21  1  0
 21 22  2  0
 22 23  1  0
 23 24  2  0
 24 25  1  0
 19 26  1  0
 26 27  2  0
 26 28  1  0
 28 29  2  0
 29 30  1  0
 30 31  2  0
 31 32  1  0
 31 33  1  0
 33 34  2  0
 17  2  1  0
 25 21  1  0
 34 28  1  0
 14  5  1  0
 34 17  1  0
 14  9  1  0
M  CHG  1  23   1
M  END
$$$$

     RDKit          3D

 35 40  0  0  0  0  0  0  0  0999 V2000
   -5.7402    4.0654  -22.3565 C   0  0  0  0  0  0  0  0  0  0  0  0
   -6.8364    3.5294  -23.2189 C   0  0  0  0  0  0  0  0  0  0  0  0
   -6.7735    2.4117  -24.0951 C   0  0  0  0  0  0  0  0  0  0  0  0
   -8.0290    2.3167  -24.6010 C   0  0  0  0  0  0  0  0  0  0  0  0
   -8.6821    1.3114  -25.5009 C   0  0  0  0  0  0  0  0  0  0  0  0
   -9.3938    0.2922  -24.7464 N   0  0  0  0  0  0  0  0  0  0  0  0
   -8.7559   -0.9816  -24.4654 C   0  0  0  0  0  0  0  0  0  0  0  0
   -8.9709   -1.4612  -23.0085 C   0  0  2  0  0  0  0  0  0  0  0  0
   -8.2139   -0.5590  -22.0122 C   0  0  0  0  0  0  0  0  0  0  0  0
   -8.3514    0.6358  -21.8805 O   0  0  0  0  0  0  0  0  0  0  0  0
   -7.3738   -1.3412  -21.2475 N   0  0  0  0  0  0  0  0  0  0  0  0
   -6.5929   -0.8084  -20.1960 C   0  0  0  0  0  0  0  0  0  0  0  0
   -6.8975   -1.0706  -18.8845 C   0  0  0  0  0  0  0  0  0  0  0  0
   -6.2246   -0.5649  -17.8186 N   0  0  0  0  0  0  0  0  0  0  0  0
   -5.1924    0.2076  -18.0785 C   0  0  0  0  0  0  0  0  0  0  0  0
   -4.7448    0.5270  -19.3939 C   0  0  0  0  0  0  0  0  0  0  0  0
   -3.6118    1.3517  -19.6264 C   0  0  0  0  0  0  0  0  0  0  0  0
   -3.1948    1.6177  -20.9037 C   0  0  0  0  0  0  0  0  0  0  0  0
   -3.8889    1.0777  -22.0076 C   0  0  0  0  0  0  0  0  0  0  0  0
   -4.9905    0.2831  -21.8145 C   0  0  0  0  0  0  0  0  0  0  0  0
   -5.4539   -0.0008  -20.4965 C   0  0  0  0  0  0  0  0  0  0  0  0
   -7.6371   -2.7527  -21.3874 C   0  0  0  0  0  0  0  0  0  0  0  0
   -8.3705   -2.8763  -22.7380 C   0  0  2  0  0  0  0  0  0  0  0  0
   -7.4666   -3.4598  -23.8260 C   0  0  0  0  0  0  0  0  0  0  0  0
  -10.4702   -1.3799  -22.7416 C   0  0  0  0  0  0  0  0  0  0  0  0
  -11.0987   -2.2603  -21.8631 C   0  0  0  0  0  0  0  0  0  0  0  0
  -12.4711   -2.2000  -21.7190 C   0  0  0  0  0  0  0  0  0  0  0  0
  -13.0586   -3.1596  -20.9868 F   0  0  0  0  0  0  0  0  0  0  0  0
  -13.2494   -1.1726  -22.2428 C   0  0  0  0  0  0  0  0  0  0  0  0
  -12.6105   -0.2469  -23.0460 C   0  0  0  0  0  0  0  0  0  0  0  0
  -11.2501   -0.3791  -23.3310 C   0  0  0  0  0  0  0  0  0  0  0  0
  -10.6512    0.5930  -24.2956 C   0  0  0  0  0  0  0  0  0  0  0  0
  -11.2617    1.5932  -24.6366 O   0  0  0  0  0  0  0  0  0  0  0  0
   -8.7878    3.2963  -24.0955 O   0  0  0  0  0  0  0  0  0  0  0  0
   -8.0341    4.0690  -23.2382 N   0  0  0  0  0  0  0  0  0  0  0  0
  1  2  1  0
  2  3  1  0
  3  4  2  0
  4  5  1  0
  5  6  1  0
  6  7  1  0
  8  7  1  6
  8  9  1  0
  9 10  2  0
  9 11  1  0
 11 12  1  0
 12 13  2  0
 13 14  1  0
 14 15  2  0
 15 16  1  0
 16 17  2  0
 17 18  1  0
 18 19  2  0
 19 20  1  0
 20 21  2  0
 11 22  1  0
 22 23  1  0
 23 24  1  6
  8 25  1  0
 25 26  2  0
 26 27  1  0
 27 28  1  0
 27 29  2  0
 29 30  1  0
 30 31  2  0
 31 32  1  0
 32 33  2  0
  4 34  1  0
 34 35  1  0
 35  2  2  0
 32  6  1  0
 23  8  1  0
 31 25  1  0
 21 12  1  0
 21 16  1  0
M  END
>  <cnnaffinities>  (21) 
[6.42405]

>  <score>  (21) 
6.42405

>  <index>  (21) 
67

>  <Smiles>  (21) 
C(c1c(c(C(N2C([C@@]3(C(=O)N(c4c(nc(c5c(c(c(c(c45)[H])[H])[H])[H])[H])[H])C([C@@]3(C([H])([H])[H])[H])([H])[H])c3c(c(F)c(c(c3C2=O)[H])[H])[H])([H])[H])([H])[H])on1)[H])([H])([H])[H]

>  <h>  (21) 
<NA>

>  <Training>  (21) 
True

>  <Success>  (21) 
True

>  <enamine_searched>  (21) 
False

>  <enamine_id>  (21) 
nan

$$$$

     RDKit          3D

 30 34  0  0  0  0  0  0  0  0999 V2000
    6.8099   -3.9534   23.8440 C   0  0  0  0  0  0  0  0  0  0  0  0
    6.8991   -2.8463   22.9221 N   0  0  0  0  0  0  0  0  0  0  0  0
    5.9748   -2.6142   21.9370 C   0  0  0  0  0  0  0  0  0  0  0  0
    4.9332   -3.1913   21.7351 O   0  0  0  0  0  0  0  0  0  0  0  0
    6.4600   -1.5248   21.1926 N   0  0  0  0  0  0  0  0  0  0  0  0
    5.7717   -0.9287   20.1009 C   0  0  0  0  0  0  0  0  0  0  0  0
    6.2145   -1.1360   18.8223 C   0  0  0  0  0  0  0  0  0  0  0  0
    5.6224   -0.6346   17.7111 N   0  0  0  0  0  0  0  0  0  0  0  0
    4.5648    0.1204   17.8870 C   0  0  0  0  0  0  0  0  0  0  0  0
    4.0059    0.4234   19.1593 C   0  0  0  0  0  0  0  0  0  0  0  0
    2.8720    1.2629   19.2935 C   0  0  0  0  0  0  0  0  0  0  0  0
    2.3700    1.5551   20.5293 C   0  0  0  0  0  0  0  0  0  0  0  0
    2.9747    1.0154   21.6869 C   0  0  0  0  0  0  0  0  0  0  0  0
    4.0726    0.1973   21.5828 C   0  0  0  0  0  0  0  0  0  0  0  0
    4.6180   -0.1162   20.3081 C   0  0  0  0  0  0  0  0  0  0  0  0
    7.6422   -1.0309   21.7272 C   0  0  0  0  0  0  0  0  0  0  0  0
    8.2093   -0.0244   21.3928 O   0  0  0  0  0  0  0  0  0  0  0  0
    8.0646   -2.0122   22.7950 C   0  0  0  0  0  0  0  0  0  0  0  0
    8.7185   -1.3890   24.0488 C   0  0  0  0  0  0  0  0  0  0  0  0
   10.0063   -2.0295   23.6762 N   0  0  0  0  0  0  0  0  0  0  0  0
   10.9611   -2.9570   24.6940 S   0  0  0  0  0  0  0  0  0  0  0  0
   11.8129   -3.7279   23.8094 O   0  0  0  0  0  0  0  0  0  0  0  0
   11.5168   -2.0590   25.6856 O   0  0  0  0  0  0  0  0  0  0  0  0
    9.8895   -4.1323   25.5206 C   0  0  0  0  0  0  0  0  0  0  0  0
    9.9185   -5.4438   25.0628 C   0  0  0  0  0  0  0  0  0  0  0  0
    9.1526   -6.4145   25.6947 C   0  0  0  0  0  0  0  0  0  0  0  0
    8.4013   -6.0967   26.8217 C   0  0  0  0  0  0  0  0  0  0  0  0
    8.3887   -4.7879   27.2885 C   0  0  0  0  0  0  0  0  0  0  0  0
    9.0943   -3.7986   26.6136 C   0  0  0  0  0  0  0  0  0  0  0  0
    9.4272   -2.6854   22.4930 C   0  0  0  0  0  0  0  0  0  0  0  0
  1  2  1  0
  2  3  1  0
  3  4  2  0
  3  5  1  0
  5  6  1  0
  6  7  2  0
  7  8  1  0
  8  9  2  0
  9 10  1  0
 10 11  2  0
 11 12  1  0
 12 13  2  0
 13 14  1  0
 14 15  2  0
  5 16  1  0
 16 17  2  0
 16 18  1  0
 18 19  1  0
 19 20  1  0
 20 21  1  0
 21 22  2  0
 21 23  2  0
 21 24  1  0
 24 25  2  0
 25 26  1  0
 26 27  2  0
 27 28  1  0
 28 29  2  0
 20 30  1  0
 18  2  1  0
 29 24  1  0
 15  6  1  0
 30 18  1  0
 15 10  1  0
M  END
$$$$

     RDKit          3D

 43 49  0  0  0  0  0  0  0  0999 V2000
  -10.5267    2.0649  -24.2218 O   0  0  0  0  0  0  0  0  0  0  0  0
  -10.1736    0.8831  -24.1377 C   0  0  0  0  0  0  0  0  0  0  0  0
  -11.0925   -0.1513  -23.5697 C   0  0  0  0  0  0  0  0  0  0  0  0
  -12.4618    0.1010  -23.5670 C   0  0  0  0  0  0  0  0  0  0  0  0
  -13.3368   -0.8396  -23.0622 C   0  0  0  0  0  0  0  0  0  0  0  0
  -12.8217   -2.0385  -22.5706 C   0  0  0  0  0  0  0  0  0  0  0  0
  -13.9090   -3.1930  -21.8510 Cl  0  0  0  0  0  0  0  0  0  0  0  0
  -11.4661   -2.3184  -22.5990 C   0  0  0  0  0  0  0  0  0  0  0  0
  -10.5685   -1.3364  -23.0419 C   0  0  0  0  0  0  0  0  0  0  0  0
   -9.0587   -1.4469  -22.9369 C   0  0  1  0  0  0  0  0  0  0  0  0
   -8.4879   -0.9071  -24.2821 C   0  0  0  0  0  0  0  0  0  0  0  0
   -8.9522    0.4526  -24.5416 N   0  0  0  0  0  0  0  0  0  0  0  0
   -8.1243    1.3349  -25.3543 C   0  0  0  0  0  0  0  0  0  0  0  0
   -7.4230    2.4516  -24.5760 C   0  0  0  0  0  0  0  0  0  0  0  0
   -8.3361    3.5859  -24.2054 N   0  0  0  0  0  0  0  0  0  0  0  0
   -8.9856    4.3485  -25.3342 C   0  0  0  0  0  0  0  0  0  0  0  0
   -8.0257    5.2918  -26.0348 C   0  0  0  0  0  0  0  0  0  0  0  0
   -7.4622    6.2093  -25.1179 O   0  0  0  0  0  0  0  0  0  0  0  0
   -6.7667    5.5285  -24.0892 C   0  0  0  0  0  0  0  0  0  0  0  0
   -7.6805    4.5866  -23.3043 C   0  0  0  0  0  0  0  0  0  0  0  0
   -8.4558   -0.5794  -21.7948 C   0  0  0  0  0  0  0  0  0  0  0  0
   -8.7273    0.5667  -21.5181 O   0  0  0  0  0  0  0  0  0  0  0  0
   -7.4838   -1.3257  -21.1578 N   0  0  0  0  0  0  0  0  0  0  0  0
   -6.6526   -0.8076  -20.1293 C   0  0  0  0  0  0  0  0  0  0  0  0
   -6.8683   -1.1790  -18.8233 C   0  0  0  0  0  0  0  0  0  0  0  0
   -6.0881   -0.8080  -17.7792 N   0  0  0  0  0  0  0  0  0  0  0  0
   -5.0604   -0.0371  -18.0333 C   0  0  0  0  0  0  0  0  0  0  0  0
   -4.7375    0.4457  -19.3328 C   0  0  0  0  0  0  0  0  0  0  0  0
   -3.6535    1.3390  -19.5388 C   0  0  0  0  0  0  0  0  0  0  0  0
   -3.3411    1.7643  -20.7992 C   0  0  0  0  0  0  0  0  0  0  0  0
   -4.0847    1.3119  -21.9111 C   0  0  0  0  0  0  0  0  0  0  0  0
   -5.1609    0.4737  -21.7330 C   0  0  0  0  0  0  0  0  0  0  0  0
   -5.5292    0.0317  -20.4283 C   0  0  0  0  0  0  0  0  0  0  0  0
   -7.2083   -2.5882  -21.8175 C   0  0  0  0  0  0  0  0  0  0  0  0
   -8.5368   -2.8472  -22.5349 C   0  0  2  0  0  0  0  0  0  0  0  0
   -8.4916   -3.8823  -23.6662 C   0  0  0  0  0  0  0  0  0  0  0  0
   -8.2307   -5.2302  -23.2059 N   0  0  0  0  0  0  0  0  0  0  0  0
   -6.9680   -5.7267  -23.1377 C   0  0  0  0  0  0  0  0  0  0  0  0
   -5.9861   -5.0173  -23.7277 N   0  0  0  0  0  0  0  0  0  0  0  0
   -4.7577   -5.5236  -23.6430 C   0  0  0  0  0  0  0  0  0  0  0  0
   -4.4736   -6.7020  -22.9680 C   0  0  0  0  0  0  0  0  0  0  0  0
   -5.5719   -7.3524  -22.4042 C   0  0  0  0  0  0  0  0  0  0  0  0
   -6.8136   -6.9021  -22.4942 N   0  0  0  0  0  0  0  0  0  0  0  0
  1  2  2  0
  2  3  1  0
  3  4  2  0
  4  5  1  0
  5  6  2  0
  6  7  1  0
  6  8  1  0
  8  9  2  0
  9 10  1  0
 10 11  1  6
 11 12  1  0
 12 13  1  0
 13 14  1  0
 14 15  1  0
 15 16  1  0
 16 17  1  0
 17 18  1  0
 18 19  1  0
 19 20  1  0
 10 21  1  0
 21 22  2  0
 21 23  1  0
 23 24  1  0
 24 25  2  0
 25 26  1  0
 26 27  2  0
 27 28  1  0
 28 29  2  0
 29 30  1  0
 30 31  2  0
 31 32  1  0
 32 33  2  0
 23 34  1  0
 34 35  1  0
 35 36  1  6
 36 37  1  0
 37 38  1  0
 38 39  2  0
 39 40  1  0
 40 41  2  0
 41 42  1  0
 42 43  2  0
 12  2  1  0
 20 15  1  0
 33 24  1  0
 43 38  1  0
  9  3  1  0
 35 10  1  0
 33 28  1  0
M  CHG  1  15   1
M  END
$$$$

     RDKit          3D

 41 46  0  0  0  0  0  0  0  0999 V2000
   -7.0195    3.6144  -22.4567 C   0  0  0  0  0  0  0  0  0  0  0  0
   -7.7136    2.6102  -23.2323 N   0  0  0  0  0  0  0  0  0  0  0  0
   -7.4615    2.5059  -24.5512 C   0  0  0  0  0  0  0  0  0  0  0  0
   -6.7087    3.2585  -25.1614 O   0  0  0  0  0  0  0  0  0  0  0  0
   -8.1559    1.3748  -25.3232 C   0  0  0  0  0  0  0  0  0  0  0  0
   -8.9790    0.4622  -24.5664 N   0  0  0  0  0  0  0  0  0  0  0  0
   -8.4993   -0.8808  -24.2775 C   0  0  0  0  0  0  0  0  0  0  0  0
   -9.0785   -1.3988  -22.9320 C   0  0  2  0  0  0  0  0  0  0  0  0
   -8.4650   -0.5476  -21.7906 C   0  0  0  0  0  0  0  0  0  0  0  0
   -8.7519    0.5974  -21.4980 O   0  0  0  0  0  0  0  0  0  0  0  0
   -7.4893   -1.2843  -21.1676 N   0  0  0  0  0  0  0  0  0  0  0  0
   -6.6532   -0.7863  -20.1356 C   0  0  0  0  0  0  0  0  0  0  0  0
   -6.8625   -1.1819  -18.8373 C   0  0  0  0  0  0  0  0  0  0  0  0
   -6.0785   -0.8264  -17.7914 N   0  0  0  0  0  0  0  0  0  0  0  0
   -5.0527   -0.0482  -18.0317 C   0  0  0  0  0  0  0  0  0  0  0  0
   -4.7304    0.4483  -19.3275 C   0  0  0  0  0  0  0  0  0  0  0  0
   -3.6378    1.3281  -19.5373 C   0  0  0  0  0  0  0  0  0  0  0  0
   -3.3111    1.7506  -20.7949 C   0  0  0  0  0  0  0  0  0  0  0  0
   -4.0556    1.2954  -21.9046 C   0  0  0  0  0  0  0  0  0  0  0  0
   -5.1371    0.4658  -21.7296 C   0  0  0  0  0  0  0  0  0  0  0  0
   -5.5247    0.0446  -20.4261 C   0  0  0  0  0  0  0  0  0  0  0  0
   -7.2398   -2.5554  -21.8126 C   0  0  0  0  0  0  0  0  0  0  0  0
   -8.5743   -2.7922  -22.5159 C   0  0  2  0  0  0  0  0  0  0  0  0
   -8.5797   -3.8408  -23.6280 C   0  0  0  0  0  0  0  0  0  0  0  0
   -8.3389   -5.1882  -23.1611 N   0  0  0  0  0  0  0  0  0  0  0  0
   -7.1013   -5.7063  -22.9471 C   0  0  0  0  0  0  0  0  0  0  0  0
   -5.9426   -5.1875  -23.5439 C   0  0  0  0  0  0  0  0  0  0  0  0
   -4.7985   -5.9243  -23.3825 C   0  0  0  0  0  0  0  0  0  0  0  0
   -4.7138   -7.0234  -22.6283 N   0  0  0  0  0  0  0  0  0  0  0  0
   -5.8546   -7.3736  -22.0263 C   0  0  0  0  0  0  0  0  0  0  0  0
   -5.8521   -8.5675  -21.1304 C   0  0  0  0  0  0  0  0  0  0  0  0
   -7.0408   -6.7929  -22.1691 N   0  0  0  0  0  0  0  0  0  0  0  0
  -10.5862   -1.3036  -23.0430 C   0  0  0  0  0  0  0  0  0  0  0  0
  -11.4844   -2.2992  -22.6215 C   0  0  0  0  0  0  0  0  0  0  0  0
  -12.8446   -2.0398  -22.5949 C   0  0  0  0  0  0  0  0  0  0  0  0
  -13.9246   -3.2200  -21.8977 Cl  0  0  0  0  0  0  0  0  0  0  0  0
  -13.3689   -0.8396  -23.0756 C   0  0  0  0  0  0  0  0  0  0  0  0
  -12.4943    0.1039  -23.5785 C   0  0  0  0  0  0  0  0  0  0  0  0
  -11.1224   -0.1350  -23.5922 C   0  0  0  0  0  0  0  0  0  0  0  0
  -10.2410    0.8818  -24.2476 C   0  0  0  0  0  0  0  0  0  0  0  0
  -10.6270    2.0231  -24.4799 O   0  0  0  0  0  0  0  0  0  0  0  0
  1  2  1  0
  2  3  1  0
  3  4  2  0
  3  5  1  0
  5  6  1  0
  6  7  1  0
  8  7  1  6
  8  9  1  0
  9 10  2  0
  9 11  1  0
 11 12  1  0
 12 13  2  0
 13 14  1  0
 14 15  2  0
 15 16  1  0
 16 17  2  0
 17 18  1  0
 18 19  2  0
 19 20  1  0
 20 21  2  0
 11 22  1  0
 22 23  1  0
 23 24  1  6
 24 25  1  0
 25 26  1  0
 26 27  2  0
 27 28  1  0
 28 29  2  0
 29 30  1  0
 30 31  1  0
 30 32  2  0
  8 33  1  0
 33 34  2  0
 34 35  1  0
 35 36  1  0
 35 37  2  0
 37 38  1  0
 38 39  2  0
 39 40  1  0
 40 41  2  0
 40  6  1  0
 23  8  1  0
 32 26  1  0
 39 33  1  0
 21 12  1  0
 21 16  1  0
M  END
$$$$

     RDKit          3D

 38 43  0  0  0  0  0  0  0  0999 V2000
    2.3132    6.5419   20.4383 C   0  0  0  0  0  0  0  0  0  0  0  0
    2.9714    6.0836   21.7234 C   0  0  1  0  0  0  0  0  0  0  0  0
    4.3338    5.4612   21.4677 C   0  0  0  0  0  0  0  0  0  0  0  0
    4.9701    5.0517   22.7564 N   0  0  0  0  0  0  0  0  0  0  0  0
    6.2852    4.4092   22.5107 C   0  0  0  0  0  0  0  0  0  0  0  0
    6.8438    3.7352   23.7646 C   0  0  0  0  0  0  0  0  0  0  0  0
    7.9546    2.8673   23.4040 N   0  0  0  0  0  0  0  0  0  0  0  0
    7.9080    1.4231   23.5608 C   0  0  0  0  0  0  0  0  0  0  0  0
    8.5895    0.6952   22.3643 C   0  0  2  0  0  0  0  0  0  0  0  0
    7.7296    0.9626   21.1032 C   0  0  0  0  0  0  0  0  0  0  0  0
    7.6908    1.9707   20.4327 O   0  0  0  0  0  0  0  0  0  0  0  0
    6.9516   -0.1471   20.8534 N   0  0  0  0  0  0  0  0  0  0  0  0
    5.9181   -0.0976   19.8865 C   0  0  0  0  0  0  0  0  0  0  0  0
    6.0680   -0.7772   18.7058 C   0  0  0  0  0  0  0  0  0  0  0  0
    5.2276   -0.6707   17.6510 N   0  0  0  0  0  0  0  0  0  0  0  0
    4.1781    0.1055   17.7953 C   0  0  0  0  0  0  0  0  0  0  0  0
    3.8541    0.7962   18.9972 C   0  0  0  0  0  0  0  0  0  0  0  0
    2.6720    1.5729   19.1206 C   0  0  0  0  0  0  0  0  0  0  0  0
    2.3473    2.1675   20.3087 C   0  0  0  0  0  0  0  0  0  0  0  0
    3.2068    2.0397   21.4206 C   0  0  0  0  0  0  0  0  0  0  0  0
    4.3788    1.3288   21.3178 C   0  0  0  0  0  0  0  0  0  0  0  0
    4.7380    0.6866   20.0952 C   0  0  0  0  0  0  0  0  0  0  0  0
    7.2027   -1.2667   21.7324 C   0  0  0  0  0  0  0  0  0  0  0  0
    8.4882   -0.8587   22.4903 C   0  0  2  0  0  0  0  0  0  0  0  0
    8.5135   -1.4109   23.9180 C   0  0  0  0  0  0  0  0  0  0  0  0
    9.9927    1.2866   22.2454 C   0  0  0  0  0  0  0  0  0  0  0  0
   11.1350    0.5354   21.9643 C   0  0  0  0  0  0  0  0  0  0  0  0
   12.3646    1.1504   21.8200 C   0  0  0  0  0  0  0  0  0  0  0  0
   13.7526    0.1302   21.5690 Cl  0  0  0  0  0  0  0  0  0  0  0  0
   12.4977    2.5385   21.8565 C   0  0  0  0  0  0  0  0  0  0  0  0
   11.3822    3.3017   22.1376 C   0  0  0  0  0  0  0  0  0  0  0  0
   10.1643    2.6726   22.4038 C   0  0  0  0  0  0  0  0  0  0  0  0
    9.0880    3.5148   23.0003 C   0  0  0  0  0  0  0  0  0  0  0  0
    9.2404    4.7198   23.1399 O   0  0  0  0  0  0  0  0  0  0  0  0
    5.0459    6.2427   23.6782 C   0  0  0  0  0  0  0  0  0  0  0  0
    3.6860    6.9281   23.8345 C   0  0  2  0  0  0  0  0  0  0  0  0
    2.7341    6.1527   24.7404 C   0  0  0  0  0  0  0  0  0  0  0  0
    3.1038    7.2193   22.5704 O   0  0  0  0  0  0  0  0  0  0  0  0
  2  1  1  6
  2  3  1  0
  3  4  1  0
  4  5  1  0
  5  6  1  0
  6  7  1  0
  7  8  1  0
  9  8  1  1
  9 10  1  0
 10 11  2  0
 10 12  1  0
 12 13  1  0
 13 14  2  0
 14 15  1  0
 15 16  2  0
 16 17  1  0
 17 18  2  0
 18 19  1  0
 19 20  2  0
 20 21  1  0
 21 22  2  0
 12 23  1  0
 23 24  1  0
 24 25  1  1
  9 26  1  0
 26 27  2  0
 27 28  1  0
 28 29  1  0
 28 30  2  0
 30 31  1  0
 31 32  2  0
 32 33  1  0
 33 34  2  0
  4 35  1  0
 35 36  1  0
 36 37  1  1
 36 38  1  0
 38  2  1  0
 33  7  1  0
 24  9  1  0
 32 26  1  0
 22 13  1  0
 22 17  1  0
M  CHG  1   4   1
M  END
$$$$

     RDKit          3D

 40 45  0  0  0  0  0  0  0  0999 V2000
   -8.4261   -3.8473  -23.7001 C   0  0  0  0  0  0  0  0  0  0  0  0
   -8.5299   -2.8519  -22.5520 C   0  0  1  0  0  0  0  0  0  0  0  0
   -7.2144   -2.5859  -21.8123 C   0  0  0  0  0  0  0  0  0  0  0  0
   -7.4910   -1.3300  -21.1451 N   0  0  0  0  0  0  0  0  0  0  0  0
   -6.6509   -0.8100  -20.1238 C   0  0  0  0  0  0  0  0  0  0  0  0
   -6.8650   -1.1787  -18.8170 C   0  0  0  0  0  0  0  0  0  0  0  0
   -6.0843   -0.8053  -17.7732 N   0  0  0  0  0  0  0  0  0  0  0  0
   -5.0597   -0.0322  -18.0289 C   0  0  0  0  0  0  0  0  0  0  0  0
   -4.7367    0.4470  -19.3294 C   0  0  0  0  0  0  0  0  0  0  0  0
   -3.6539    1.3409  -19.5373 C   0  0  0  0  0  0  0  0  0  0  0  0
   -3.3367    1.7622  -20.7968 C   0  0  0  0  0  0  0  0  0  0  0  0
   -4.0782    1.3050  -21.9082 C   0  0  0  0  0  0  0  0  0  0  0  0
   -5.1553    0.4666  -21.7297 C   0  0  0  0  0  0  0  0  0  0  0  0
   -5.5268    0.0279  -20.4251 C   0  0  0  0  0  0  0  0  0  0  0  0
   -8.4595   -0.5826  -21.7871 C   0  0  0  0  0  0  0  0  0  0  0  0
   -8.7397    0.5582  -21.5026 O   0  0  0  0  0  0  0  0  0  0  0  0
   -9.0680   -1.4491  -22.9280 C   0  0  1  0  0  0  0  0  0  0  0  0
   -8.5104   -0.9436  -24.2820 C   0  0  0  0  0  0  0  0  0  0  0  0
   -9.0033    0.3837  -24.6185 N   0  0  0  0  0  0  0  0  0  0  0  0
   -8.1619    1.1828  -25.4952 C   0  0  0  0  0  0  0  0  0  0  0  0
   -7.4438    2.2910  -24.7438 C   0  0  0  0  0  0  0  0  0  0  0  0
   -8.3117    3.4684  -24.4479 N   0  0  0  0  0  0  0  0  0  0  0  0
   -8.8388    4.2014  -25.6522 C   0  0  0  0  0  0  0  0  0  0  0  0
   -9.5405    5.4848  -25.2034 C   0  0  0  0  0  0  0  0  0  0  0  0
   -8.6644    6.3449  -24.4160 N   0  0  0  0  0  0  0  0  0  0  0  0
   -8.0363    7.7262  -25.0711 S   0  0  0  0  0  0  0  0  0  0  0  0
   -6.9982    7.1248  -26.3961 C   0  0  0  0  0  0  0  0  0  0  0  0
   -9.1495    8.4537  -25.6592 O   0  0  0  0  0  0  0  0  0  0  0  0
   -7.1806    8.3480  -24.0750 O   0  0  0  0  0  0  0  0  0  0  0  0
   -8.0863    5.7143  -23.2411 C   0  0  0  0  0  0  0  0  0  0  0  0
   -7.5002    4.3468  -23.5573 C   0  0  0  0  0  0  0  0  0  0  0  0
  -10.1941    0.8568  -24.1740 C   0  0  0  0  0  0  0  0  0  0  0  0
  -10.5347    2.0445  -24.2535 O   0  0  0  0  0  0  0  0  0  0  0  0
  -11.1090   -0.1536  -23.5717 C   0  0  0  0  0  0  0  0  0  0  0  0
  -12.4770    0.1086  -23.5668 C   0  0  0  0  0  0  0  0  0  0  0  0
  -13.3544   -0.8280  -23.0591 C   0  0  0  0  0  0  0  0  0  0  0  0
  -12.8343   -2.0242  -22.5652 C   0  0  0  0  0  0  0  0  0  0  0  0
  -13.9151   -3.1823  -21.8420 Cl  0  0  0  0  0  0  0  0  0  0  0  0
  -11.4791   -2.3053  -22.5878 C   0  0  0  0  0  0  0  0  0  0  0  0
  -10.5791   -1.3311  -23.0323 C   0  0  0  0  0  0  0  0  0  0  0  0
  2  1  1  6
  2  3  1  0
  3  4  1  0
  4  5  1  0
  5  6  2  0
  6  7  1  0
  7  8  2  0
  8  9  1  0
  9 10  2  0
 10 11  1  0
 11 12  2  0
 12 13  1  0
 13 14  2  0
  4 15  1  0
 15 16  2  0
 15 17  1  0
 17 18  1  6
 18 19  1  0
 19 20  1  0
 20 21  1  0
 21 22  1  0
 22 23  1  0
 23 24  1  0
 24 25  1  0
 25 26  1  0
 26 27  1  0
 26 28  2  0
 26 29  2  0
 25 30  1  0
 30 31  1  0
 19 32  1  0
 32 33  2  0
 32 34  1  0
 34 35  2  0
 35 36  1  0
 36 37  2  0
 37 38  1  0
 37 39  1  0
 39 40  2  0
 17  2  1  0
 31 22  1  0
 40 34  1  0
 14  5  1  0
 40 17  1  0
 14  9  1  0
M  CHG  1  22   1
M  END
$$$$

     RDKit          3D

 28 31  0  0  0  0  0  0  0  0999 V2000
    9.4756    3.0613   23.2367 C   0  0  0  0  0  0  0  0  0  0  0  0
    8.7398    1.8884   23.5184 O   0  0  0  0  0  0  0  0  0  0  0  0
    9.3265    0.6648   23.3782 C   0  0  0  0  0  0  0  0  0  0  0  0
   10.6522    0.4865   22.9692 C   0  0  0  0  0  0  0  0  0  0  0  0
   11.1761   -0.7998   22.8568 C   0  0  0  0  0  0  0  0  0  0  0  0
   10.4003   -1.9084   23.1596 C   0  0  0  0  0  0  0  0  0  0  0  0
    9.0848   -1.7146   23.5631 C   0  0  0  0  0  0  0  0  0  0  0  0
    8.5174   -0.4512   23.6588 C   0  0  0  0  0  0  0  0  0  0  0  0
    7.0729   -0.3033   24.1167 C   0  0  2  0  0  0  0  0  0  0  0  0
    7.0019   -0.5886   25.6234 C   0  0  0  0  0  0  0  0  0  0  0  0
    5.5783   -0.6372   26.1672 C   0  0  2  0  0  0  0  0  0  0  0  0
    5.5445   -0.8985   27.6739 C   0  0  0  0  0  0  0  0  0  0  0  0
    4.8104   -1.7022   25.3976 C   0  0  0  0  0  0  0  0  0  0  0  0
    4.8203   -1.4008   23.9129 C   0  0  0  0  0  0  0  0  0  0  0  0
    6.1769   -1.2061   23.3926 N   0  0  0  0  0  0  0  0  0  0  0  0
    6.3233   -1.4893   22.0280 C   0  0  0  0  0  0  0  0  0  0  0  0
    5.9950   -2.5640   21.5744 O   0  0  0  0  0  0  0  0  0  0  0  0
    6.8450   -0.3940   21.0821 C   0  0  0  0  0  0  0  0  0  0  0  0
    5.8661   -0.1847   19.9504 C   0  0  0  0  0  0  0  0  0  0  0  0
    6.0414   -0.8105   18.7442 C   0  0  0  0  0  0  0  0  0  0  0  0
    5.2329   -0.6725   17.6603 N   0  0  0  0  0  0  0  0  0  0  0  0
    4.1720    0.0809   17.8031 C   0  0  0  0  0  0  0  0  0  0  0  0
    3.8198    0.7323   19.0170 C   0  0  0  0  0  0  0  0  0  0  0  0
    2.6289    1.4878   19.1492 C   0  0  0  0  0  0  0  0  0  0  0  0
    2.3030    2.0937   20.3293 C   0  0  0  0  0  0  0  0  0  0  0  0
    3.1841    2.0006   21.4279 C   0  0  0  0  0  0  0  0  0  0  0  0
    4.3520    1.2836   21.3256 C   0  0  0  0  0  0  0  0  0  0  0  0
    4.6960    0.6113   20.1224 C   0  0  0  0  0  0  0  0  0  0  0  0
  1  2  1  0
  2  3  1  0
  3  4  2  0
  4  5  1  0
  5  6  2  0
  6  7  1  0
  7  8  2  0
  9  8  1  6
  9 10  1  0
 10 11  1  0
 11 12  1  1
 11 13  1  0
 13 14  1  0
 14 15  1  0
 15 16  1  0
 16 17  2  0
 16 18  1  0
 18 19  1  0
 19 20  2  0
 20 21  1  0
 21 22  2  0
 22 23  1  0
 23 24  2  0
 24 25  1  0
 25 26  2  0
 26 27  1  0
 27 28  2  0
  8  3  1  0
 15  9  1  0
 28 19  1  0
 28 23  1  0
M  END
$$$$

     RDKit          3D

 38 43  0  0  0  0  0  0  0  0999 V2000
   -7.0038    3.6332  -22.4919 C   0  0  0  0  0  0  0  0  0  0  0  0
   -7.7945    2.6996  -23.2711 N   0  0  0  0  0  0  0  0  0  0  0  0
   -7.5098    2.5317  -24.5807 C   0  0  0  0  0  0  0  0  0  0  0  0
   -6.7405    3.2444  -25.2107 O   0  0  0  0  0  0  0  0  0  0  0  0
   -8.1541    1.3540  -25.3196 C   0  0  0  0  0  0  0  0  0  0  0  0
   -8.9909    0.4664  -24.5526 N   0  0  0  0  0  0  0  0  0  0  0  0
   -8.5149   -0.8812  -24.2696 C   0  0  0  0  0  0  0  0  0  0  0  0
   -9.0812   -1.4224  -22.9343 C   0  0  2  0  0  0  0  0  0  0  0  0
   -8.4754   -0.5748  -21.7869 C   0  0  0  0  0  0  0  0  0  0  0  0
   -8.7816    0.5675  -21.4996 O   0  0  0  0  0  0  0  0  0  0  0  0
   -7.4990   -1.3103  -21.1568 N   0  0  0  0  0  0  0  0  0  0  0  0
   -6.6557   -0.8013  -20.1309 C   0  0  0  0  0  0  0  0  0  0  0  0
   -6.8913   -1.1462  -18.8228 C   0  0  0  0  0  0  0  0  0  0  0  0
   -6.1377   -0.7397  -17.7722 N   0  0  0  0  0  0  0  0  0  0  0  0
   -5.1115    0.0403  -18.0094 C   0  0  0  0  0  0  0  0  0  0  0  0
   -4.7636    0.4915  -19.3162 C   0  0  0  0  0  0  0  0  0  0  0  0
   -3.6688    1.3696  -19.5331 C   0  0  0  0  0  0  0  0  0  0  0  0
   -3.3247    1.7619  -20.7966 C   0  0  0  0  0  0  0  0  0  0  0  0
   -4.0615    1.2873  -21.9008 C   0  0  0  0  0  0  0  0  0  0  0  0
   -5.1441    0.4597  -21.7200 C   0  0  0  0  0  0  0  0  0  0  0  0
   -5.5324    0.0414  -20.4158 C   0  0  0  0  0  0  0  0  0  0  0  0
   -7.2367   -2.5722  -21.8205 C   0  0  0  0  0  0  0  0  0  0  0  0
   -8.5529   -2.8335  -22.5600 C   0  0  2  0  0  0  0  0  0  0  0  0
   -8.4270   -3.8578  -23.6984 C   0  0  0  0  0  0  0  0  0  0  0  0
   -9.7016   -4.2777  -24.2524 N   0  0  0  0  0  0  0  0  0  0  0  0
  -10.5421   -5.1782  -23.6955 C   0  0  0  0  0  0  0  0  0  0  0  0
  -11.6868   -5.2014  -24.4658 C   0  0  0  0  0  0  0  0  0  0  0  0
  -11.4324   -4.2322  -25.4715 C   0  0  0  0  0  0  0  0  0  0  0  0
  -10.2336   -3.6795  -25.3270 N   0  0  0  0  0  0  0  0  0  0  0  0
  -10.5875   -1.2793  -23.0344 C   0  0  0  0  0  0  0  0  0  0  0  0
  -11.4726   -2.2113  -22.4925 C   0  0  0  0  0  0  0  0  0  0  0  0
  -12.8302   -1.9535  -22.4599 C   0  0  0  0  0  0  0  0  0  0  0  0
  -13.8669   -3.0924  -21.6344 Cl  0  0  0  0  0  0  0  0  0  0  0  0
  -13.3717   -0.7950  -23.0098 C   0  0  0  0  0  0  0  0  0  0  0  0
  -12.5099    0.1148  -23.5920 C   0  0  0  0  0  0  0  0  0  0  0  0
  -11.1392   -0.1356  -23.6241 C   0  0  0  0  0  0  0  0  0  0  0  0
  -10.2633    0.8857  -24.2715 C   0  0  0  0  0  0  0  0  0  0  0  0
  -10.6529    2.0236  -24.5010 O   0  0  0  0  0  0  0  0  0  0  0  0
  1  2  1  0
  2  3  1  0
  3  4  2  0
  3  5  1  0
  5  6  1  0
  6  7  1  0
  8  7  1  6
  8  9  1  0
  9 10  2  0
  9 11  1  0
 11 12  1  0
 12 13  2  0
 13 14  1  0
 14 15  2  0
 15 16  1  0
 16 17  2  0
 17 18  1  0
 18 19  2  0
 19 20  1  0
 20 21  2  0
 11 22  1  0
 22 23  1  0
 23 24  1  6
 24 25  1  0
 25 26  1  0
 26 27  2  0
 27 28  1  0
 28 29  2  0
  8 30  1  0
 30 31  2  0
 31 32  1  0
 32 33  1  0
 32 34  2  0
 34 35  1  0
 35 36  2  0
 36 37  1  0
 37 38  2  0
 37  6  1  0
 23  8  1  0
 29 25  1  0
 36 30  1  0
 21 12  1  0
 21 16  1  0
M  END
$$$$

     RDKit          3D

 38 43  0  0  0  0  0  0  0  0999 V2000
   -7.0098    3.6344  -22.4891 C   0  0  0  0  0  0  0  0  0  0  0  0
   -7.7925    2.6965  -23.2720 N   0  0  0  0  0  0  0  0  0  0  0  0
   -7.5056    2.5278  -24.5796 C   0  0  0  0  0  0  0  0  0  0  0  0
   -6.7326    3.2476  -25.2030 O   0  0  0  0  0  0  0  0  0  0  0  0
   -8.1574    1.3585  -25.3184 C   0  0  0  0  0  0  0  0  0  0  0  0
   -8.9909    0.4721  -24.5494 N   0  0  0  0  0  0  0  0  0  0  0  0
   -8.5157   -0.8777  -24.2737 C   0  0  0  0  0  0  0  0  0  0  0  0
   -9.0766   -1.4194  -22.9340 C   0  0  2  0  0  0  0  0  0  0  0  0
   -8.4709   -0.5753  -21.7850 C   0  0  0  0  0  0  0  0  0  0  0  0
   -8.7706    0.5680  -21.5046 O   0  0  0  0  0  0  0  0  0  0  0  0
   -7.5018   -1.3160  -21.1494 N   0  0  0  0  0  0  0  0  0  0  0  0
   -6.6550   -0.7989  -20.1275 C   0  0  0  0  0  0  0  0  0  0  0  0
   -6.8889   -1.1489  -18.8207 C   0  0  0  0  0  0  0  0  0  0  0  0
   -6.1297   -0.7509  -17.7704 N   0  0  0  0  0  0  0  0  0  0  0  0
   -5.1047    0.0285  -18.0124 C   0  0  0  0  0  0  0  0  0  0  0  0
   -4.7548    0.4825  -19.3164 C   0  0  0  0  0  0  0  0  0  0  0  0
   -3.6671    1.3682  -19.5325 C   0  0  0  0  0  0  0  0  0  0  0  0
   -3.3263    1.7612  -20.7951 C   0  0  0  0  0  0  0  0  0  0  0  0
   -4.0596    1.2864  -21.9036 C   0  0  0  0  0  0  0  0  0  0  0  0
   -5.1412    0.4589  -21.7224 C   0  0  0  0  0  0  0  0  0  0  0  0
   -5.5305    0.0425  -20.4182 C   0  0  0  0  0  0  0  0  0  0  0  0
   -7.2382   -2.5779  -21.8165 C   0  0  0  0  0  0  0  0  0  0  0  0
   -8.5556   -2.8342  -22.5575 C   0  0  2  0  0  0  0  0  0  0  0  0
   -8.4200   -3.8706  -23.6807 C   0  0  0  0  0  0  0  0  0  0  0  0
   -9.7041   -4.2659  -24.2439 N   0  0  0  0  0  0  0  0  0  0  0  0
  -10.5004   -5.1496  -23.6700 N   0  0  0  0  0  0  0  0  0  0  0  0
  -11.5505   -5.1200  -24.4803 C   0  0  0  0  0  0  0  0  0  0  0  0
  -11.3956   -4.2531  -25.5014 N   0  0  0  0  0  0  0  0  0  0  0  0
  -10.2136   -3.7204  -25.3286 N   0  0  0  0  0  0  0  0  0  0  0  0
  -10.5831   -1.2775  -23.0318 C   0  0  0  0  0  0  0  0  0  0  0  0
  -11.4705   -2.2158  -22.5039 C   0  0  0  0  0  0  0  0  0  0  0  0
  -12.8288   -1.9568  -22.4725 C   0  0  0  0  0  0  0  0  0  0  0  0
  -13.8595   -3.1052  -21.6558 Cl  0  0  0  0  0  0  0  0  0  0  0  0
  -13.3703   -0.7919  -23.0147 C   0  0  0  0  0  0  0  0  0  0  0  0
  -12.5053    0.1188  -23.5921 C   0  0  0  0  0  0  0  0  0  0  0  0
  -11.1345   -0.1304  -23.6190 C   0  0  0  0  0  0  0  0  0  0  0  0
  -10.2613    0.8880  -24.2653 C   0  0  0  0  0  0  0  0  0  0  0  0
  -10.6493    2.0305  -24.4984 O   0  0  0  0  0  0  0  0  0  0  0  0
  1  2  1  0
  2  3  1  0
  3  4  2  0
  3  5  1  0
  5  6  1  0
  6  7  1  0
  8  7  1  6
  8  9  1  0
  9 10  2  0
  9 11  1  0
 11 12  1  0
 12 13  2  0
 13 14  1  0
 14 15  2  0
 15 16  1  0
 16 17  2  0
 17 18  1  0
 18 19  2  0
 19 20  1  0
 20 21  2  0
 11 22  1  0
 22 23  1  0
 23 24  1  6
 24 25  1  0
 25 26  1  0
 26 27  2  0
 27 28  1  0
 28 29  2  0
  8 30  1  0
 30 31  2  0
 31 32  1  0
 32 33  1  0
 32 34  2  0
 34 35  1  0
 35 36  2  0
 36 37  1  0
 37 38  2  0
 37  6  1  0
 23  8  1  0
 29 25  1  0
 36 30  1  0
 21 12  1  0
 21 16  1  0
M  END
$$$$

     RDKit          3D

 24 27  0  0  0  0  0  0  0  0999 V2000
    8.1754    1.0444   20.1122 O   0  0  0  0  0  0  0  0  0  0  0  0
    7.5957    0.5768   21.0787 C   0  0  0  0  0  0  0  0  0  0  0  0
    6.7362   -0.6858   20.9415 C   0  0  0  0  0  0  0  0  0  0  0  0
    5.7470   -0.4343   19.8398 C   0  0  0  0  0  0  0  0  0  0  0  0
    6.0093   -0.8649   18.5682 C   0  0  0  0  0  0  0  0  0  0  0  0
    5.2737   -0.5623   17.4704 N   0  0  0  0  0  0  0  0  0  0  0  0
    4.2222    0.1995   17.6581 C   0  0  0  0  0  0  0  0  0  0  0  0
    3.8355    0.7345   18.9172 C   0  0  0  0  0  0  0  0  0  0  0  0
    2.7193    1.5986   19.0576 C   0  0  0  0  0  0  0  0  0  0  0  0
    2.4184    2.1576   20.2692 C   0  0  0  0  0  0  0  0  0  0  0  0
    3.2206    1.8742   21.3979 C   0  0  0  0  0  0  0  0  0  0  0  0
    4.2925    1.0235   21.2930 C   0  0  0  0  0  0  0  0  0  0  0  0
    4.6280    0.4254   20.0453 C   0  0  0  0  0  0  0  0  0  0  0  0
    7.6290    1.1868   22.2989 N   0  0  0  0  0  0  0  0  0  0  0  0
    7.5317    0.5063   23.5779 C   0  0  0  0  0  0  0  0  0  0  0  0
    8.1342    1.4943   24.5957 C   0  0  2  0  0  0  0  0  0  0  0  0
    7.4389    1.3718   25.9354 C   0  0  0  0  0  0  0  0  0  0  0  0
    7.7662    2.4163   26.7814 F   0  0  0  0  0  0  0  0  0  0  0  0
    8.1632    2.9472   23.9079 C   0  0  0  0  0  0  0  0  0  0  0  0
    9.4099    3.5284   24.0509 C   0  0  0  0  0  0  0  0  0  0  0  0
    7.5989    4.7349   25.7386 C   0  0  0  0  0  0  0  0  0  0  0  0
    7.4628    5.0145   25.6947 C   0  0  0  0  0  0  0  0  0  0  0  0
    6.9524    3.8844   24.3687 C   0  0  0  0  0  0  0  0  0  0  0  0
    8.0329    2.5757   22.3543 C   0  0  0  0  0  0  0  0  0  0  0  0
  1  2  2  0
  2  3  1  0
  3  4  1  0
  4  5  2  0
  5  6  1  0
  6  7  2  0
  7  8  1  0
  8  9  2  0
  9 10  1  0
 10 11  2  0
 11 12  1  0
 12 13  2  0
  2 14  1  0
 14 15  1  0
 15 16  1  0
 16 17  1  1
 17 18  1  0
 16 19  1  0
 19 20  1  0
 20 21  1  0
 21 22  1  0
 22 23  1  0
 19 24  1  0
 13  4  1  0
 24 14  1  0
 13  8  1  0
 23 19  1  0
M  END
$$$$

     RDKit          3D

 38 43  0  0  0  0  0  0  0  0999 V2000
    7.1531    5.1881   27.1496 C   0  0  0  0  0  0  0  0  0  0  0  0
    7.3317    4.9013   25.7408 N   0  0  0  0  0  0  0  0  0  0  0  0
    6.6066    3.9037   25.1740 C   0  0  0  0  0  0  0  0  0  0  0  0
    5.8620    3.1807   25.8166 O   0  0  0  0  0  0  0  0  0  0  0  0
    6.7783    3.7541   23.6578 C   0  0  0  0  0  0  0  0  0  0  0  0
    7.9127    2.9322   23.2981 N   0  0  0  0  0  0  0  0  0  0  0  0
    7.8389    1.4959   23.5109 C   0  0  0  0  0  0  0  0  0  0  0  0
    8.5193    0.7362   22.3459 C   0  0  2  0  0  0  0  0  0  0  0  0
    7.6957    0.9795   21.0645 C   0  0  0  0  0  0  0  0  0  0  0  0
    7.6382    1.9785   20.3835 O   0  0  0  0  0  0  0  0  0  0  0  0
    6.9519   -0.1506   20.8088 N   0  0  0  0  0  0  0  0  0  0  0  0
    5.9254   -0.1087   19.8451 C   0  0  0  0  0  0  0  0  0  0  0  0
    6.0867   -0.7746   18.6617 C   0  0  0  0  0  0  0  0  0  0  0  0
    5.2512   -0.6596   17.6046 N   0  0  0  0  0  0  0  0  0  0  0  0
    4.1981    0.1115   17.7556 C   0  0  0  0  0  0  0  0  0  0  0  0
    3.8684    0.7868   18.9655 C   0  0  0  0  0  0  0  0  0  0  0  0
    2.6908    1.5684   19.0970 C   0  0  0  0  0  0  0  0  0  0  0  0
    2.3593    2.1385   20.2948 C   0  0  0  0  0  0  0  0  0  0  0  0
    3.2026    1.9758   21.4162 C   0  0  0  0  0  0  0  0  0  0  0  0
    4.3681    1.2592   21.3060 C   0  0  0  0  0  0  0  0  0  0  0  0
    4.7392    0.6566   20.0675 C   0  0  0  0  0  0  0  0  0  0  0  0
    7.1835   -1.2587   21.7027 C   0  0  0  0  0  0  0  0  0  0  0  0
    8.4208   -0.8154   22.4970 C   0  0  2  0  0  0  0  0  0  0  0  0
    8.4119   -1.3325   23.9343 C   0  0  0  0  0  0  0  0  0  0  0  0
    9.5421   -0.8754   24.6509 O   0  0  0  0  0  0  0  0  0  0  0  0
   10.6498   -1.7395   24.5522 C   0  0  0  0  0  0  0  0  0  0  0  0
   10.5999   -2.8393   25.5810 C   0  0  0  0  0  0  0  0  0  0  0  0
   10.0924   -4.2046   25.2004 C   0  0  0  0  0  0  0  0  0  0  0  0
   11.5640   -3.9525   25.3575 C   0  0  0  0  0  0  0  0  0  0  0  0
    9.9344    1.3018   22.2760 C   0  0  0  0  0  0  0  0  0  0  0  0
   11.0549    0.4975   22.0212 C   0  0  0  0  0  0  0  0  0  0  0  0
   12.3165    1.0680   21.8943 C   0  0  0  0  0  0  0  0  0  0  0  0
   13.6814    0.0185   21.6154 Cl  0  0  0  0  0  0  0  0  0  0  0  0
   12.5120    2.4493   21.9474 C   0  0  0  0  0  0  0  0  0  0  0  0
   11.4176    3.2413   22.2187 C   0  0  0  0  0  0  0  0  0  0  0  0
   10.1706    2.6749   22.4836 C   0  0  0  0  0  0  0  0  0  0  0  0
    9.1021    3.5563   23.0534 C   0  0  0  0  0  0  0  0  0  0  0  0
    9.2737    4.7491   23.2988 O   0  0  0  0  0  0  0  0  0  0  0  0
  1  2  1  0
  2  3  1  0
  3  4  2  0
  3  5  1  0
  5  6  1  0
  6  7  1  0
  8  7  1  1
  8  9  1  0
  9 10  2  0
  9 11  1  0
 11 12  1  0
 12 13  2  0
 13 14  1  0
 14 15  2  0
 15 16  1  0
 16 17  2  0
 17 18  1  0
 18 19  2  0
 19 20  1  0
 20 21  2  0
 11 22  1  0
 22 23  1  0
 23 24  1  1
 24 25  1  0
 25 26  1  0
 26 27  1  0
 27 28  1  0
 28 29  1  0
  8 30  1  0
 30 31  2  0
 31 32  1  0
 32 33  1  0
 32 34  2  0
 34 35  1  0
 35 36  2  0
 36 37  1  0
 37 38  2  0
 37  6  1  0
 23  8  1  0
 29 27  1  0
 36 30  1  0
 21 12  1  0
 21 16  1  0
M  END
$$$$

     RDKit          3D

 22 25  0  0  0  0  0  0  0  0999 V2000
   -9.5563   -4.7675  -25.8548 C   0  0  0  0  0  0  0  0  0  0  0  0
   -9.5841   -3.8313  -24.6419 C   0  0  2  0  0  0  0  0  0  0  0  0
   -9.9156   -2.3929  -25.0772 C   0  0  0  0  0  0  0  0  0  0  0  0
  -10.0664   -1.4683  -23.8540 C   0  0  0  0  0  0  0  0  0  0  0  0
   -8.9737   -1.7075  -22.8482 C   0  0  0  0  0  0  0  0  0  0  0  0
   -8.5611   -0.9610  -21.7681 C   0  0  0  0  0  0  0  0  0  0  0  0
   -9.0423    0.1492  -21.4059 O   0  0  0  0  0  0  0  0  0  0  0  0
   -7.5104   -1.6121  -21.1257 N   0  0  0  0  0  0  0  0  0  0  0  0
   -6.6984   -1.0732  -20.0986 C   0  0  0  0  0  0  0  0  0  0  0  0
   -6.9762   -1.3348  -18.7365 C   0  0  0  0  0  0  0  0  0  0  0  0
   -6.2584   -0.8358  -17.7054 N   0  0  0  0  0  0  0  0  0  0  0  0
   -5.2549    0.0138  -18.0003 C   0  0  0  0  0  0  0  0  0  0  0  0
   -4.9150    0.3666  -19.3182 C   0  0  0  0  0  0  0  0  0  0  0  0
   -3.9290    1.3310  -19.5847 C   0  0  0  0  0  0  0  0  0  0  0  0
   -3.5950    1.6614  -20.8972 C   0  0  0  0  0  0  0  0  0  0  0  0
   -4.2108    1.0022  -21.9617 C   0  0  0  0  0  0  0  0  0  0  0  0
   -5.2244    0.0677  -21.7070 C   0  0  0  0  0  0  0  0  0  0  0  0
   -5.6108   -0.2275  -20.3890 C   0  0  0  0  0  0  0  0  0  0  0  0
   -7.2467   -2.7607  -21.8516 C   0  0  0  0  0  0  0  0  0  0  0  0
   -6.4014   -3.6060  -21.5790 O   0  0  0  0  0  0  0  0  0  0  0  0
   -8.1589   -2.8354  -22.8912 N   0  0  0  0  0  0  0  0  0  0  0  0
   -8.2230   -3.8593  -23.9248 C   0  0  0  0  0  0  0  0  0  0  0  0
  2  1  1  6
  2  3  1  0
  3  4  1  0
  4  5  1  0
  5  6  2  0
  6  7  1  0
  6  8  1  0
  8  9  1  0
  9 10  2  0
 10 11  1  0
 11 12  2  0
 12 13  1  0
 13 14  2  0
 14 15  1  0
 15 16  2  0
 16 17  1  0
 17 18  2  0
  8 19  1  0
 19 20  2  0
 19 21  1  0
 21 22  1  0
 22  2  1  0
 21  5  1  0
 18  9  1  0
 18 13  1  0
M  CHG  1   7  -1
M  END
$$$$

     RDKit          3D

 37 43  0  0  0  0  0  0  0  0999 V2000
    8.5292   -1.4043   23.9066 C   0  0  0  0  0  0  0  0  0  0  0  0
    8.4883   -0.8416   22.4880 C   0  0  1  0  0  0  0  0  0  0  0  0
    7.2111   -1.2556   21.7314 C   0  0  0  0  0  0  0  0  0  0  0  0
    6.9692   -0.1443   20.8407 N   0  0  0  0  0  0  0  0  0  0  0  0
    5.9360   -0.1028   19.8740 C   0  0  0  0  0  0  0  0  0  0  0  0
    6.0797   -0.7811   18.6927 C   0  0  0  0  0  0  0  0  0  0  0  0
    5.2383   -0.6690   17.6378 N   0  0  0  0  0  0  0  0  0  0  0  0
    4.1888    0.1067   17.7877 C   0  0  0  0  0  0  0  0  0  0  0  0
    3.8665    0.7896   18.9950 C   0  0  0  0  0  0  0  0  0  0  0  0
    2.6880    1.5716   19.1258 C   0  0  0  0  0  0  0  0  0  0  0  0
    2.3651    2.1600   20.3185 C   0  0  0  0  0  0  0  0  0  0  0  0
    3.2236    2.0162   21.4307 C   0  0  0  0  0  0  0  0  0  0  0  0
    4.3850    1.2896   21.3226 C   0  0  0  0  0  0  0  0  0  0  0  0
    4.7490    0.6662   20.0926 C   0  0  0  0  0  0  0  0  0  0  0  0
    7.7417    0.9678   21.0900 C   0  0  0  0  0  0  0  0  0  0  0  0
    7.6879    1.9824   20.4257 O   0  0  0  0  0  0  0  0  0  0  0  0
    8.5832    0.7111   22.3641 C   0  0  1  0  0  0  0  0  0  0  0  0
    7.8921    1.4435   23.5497 C   0  0  0  0  0  0  0  0  0  0  0  0
    7.9447    2.8848   23.3991 N   0  0  0  0  0  0  0  0  0  0  0  0
    6.8167    3.7380   23.7199 C   0  0  0  0  0  0  0  0  0  0  0  0
    6.2396    4.3611   22.4508 C   0  0  0  0  0  0  0  0  0  0  0  0
    5.0587    5.2055   22.7575 N   0  0  2  0  0  0  0  0  0  0  0  0
    4.2342    5.5832   21.5294 C   0  0  0  0  0  0  0  0  0  0  0  0
    4.1768    7.1176   21.6110 C   0  0  2  0  0  0  0  0  0  0  0  0
    5.5705    7.4664   22.1284 C   0  0  0  0  0  0  0  0  0  0  0  0
    5.3831    6.5857   23.3627 C   0  0  1  0  0  0  0  0  0  0  0  0
    4.0586    7.1242   23.8936 C   0  0  0  0  0  0  0  0  0  0  0  0
    3.3265    7.4776   22.7070 O   0  0  0  0  0  0  0  0  0  0  0  0
    9.0841    3.5289   23.0095 C   0  0  0  0  0  0  0  0  0  0  0  0
    9.2154    4.7443   23.1014 O   0  0  0  0  0  0  0  0  0  0  0  0
   10.1779    2.6755   22.4607 C   0  0  0  0  0  0  0  0  0  0  0  0
   11.4046    3.2909   22.2044 C   0  0  0  0  0  0  0  0  0  0  0  0
   12.5136    2.5239   21.9178 C   0  0  0  0  0  0  0  0  0  0  0  0
   12.3670    1.1363   21.8740 C   0  0  0  0  0  0  0  0  0  0  0  0
   13.7696    0.1572   21.5820 Cl  0  0  0  0  0  0  0  0  0  0  0  0
   11.1346    0.5259   22.0302 C   0  0  0  0  0  0  0  0  0  0  0  0
    9.9915    1.2940   22.2817 C   0  0  0  0  0  0  0  0  0  0  0  0
  2  1  1  1
  2  3  1  0
  3  4  1  0
  4  5  1  0
  5  6  2  0
  6  7  1  0
  7  8  2  0
  8  9  1  0
  9 10  2  0
 10 11  1  0
 11 12  2  0
 12 13  1  0
 13 14  2  0
  4 15  1  0
 15 16  2  0
 15 17  1  0
 17 18  1  1
 18 19  1  0
 19 20  1  0
 20 21  1  0
 22 21  1  6
 22 23  1  0
 24 23  1  1
 24 25  1  0
 25 26  1  0
 26 27  1  1
 27 28  1  0
 19 29  1  0
 29 30  2  0
 29 31  1  0
 31 32  2  0
 32 33  1  0
 33 34  2  0
 34 35  1  0
 34 36  1  0
 36 37  2  0
 17  2  1  0
 26 22  1  0
 37 31  1  0
 14  5  1  0
 37 17  1  0
 14  9  1  0
 28 24  1  0
M  CHG  1  22   1
M  END
$$$$

     RDKit          3D

 38 43  0  0  0  0  0  0  0  0999 V2000
    6.0444    8.9361   23.3626 C   0  0  0  0  0  0  0  0  0  0  0  0
    5.9229    7.6191   22.6214 C   0  0  1  0  0  0  0  0  0  0  0  0
    5.3387    6.4947   23.4815 C   0  0  0  0  0  0  0  0  0  0  0  0
    5.0787    5.2291   22.6822 N   0  0  2  0  0  0  0  0  0  0  0  0
    6.3130    4.4235   22.4369 C   0  0  0  0  0  0  0  0  0  0  0  0
    6.8208    3.7404   23.7087 C   0  0  0  0  0  0  0  0  0  0  0  0
    7.9455    2.8769   23.3951 N   0  0  0  0  0  0  0  0  0  0  0  0
    7.8869    1.4368   23.5494 C   0  0  0  0  0  0  0  0  0  0  0  0
    8.5777    0.7126   22.3636 C   0  0  2  0  0  0  0  0  0  0  0  0
    7.7343    0.9697   21.0898 C   0  0  0  0  0  0  0  0  0  0  0  0
    7.6778    1.9786   20.4165 O   0  0  0  0  0  0  0  0  0  0  0  0
    6.9619   -0.1426   20.8418 N   0  0  0  0  0  0  0  0  0  0  0  0
    5.9277   -0.0985   19.8768 C   0  0  0  0  0  0  0  0  0  0  0  0
    6.0687   -0.7805   18.6960 C   0  0  0  0  0  0  0  0  0  0  0  0
    5.2262   -0.6708   17.6420 N   0  0  0  0  0  0  0  0  0  0  0  0
    4.1780    0.1063   17.7919 C   0  0  0  0  0  0  0  0  0  0  0  0
    3.8584    0.7948   18.9975 C   0  0  0  0  0  0  0  0  0  0  0  0
    2.6784    1.5747   19.1283 C   0  0  0  0  0  0  0  0  0  0  0  0
    2.3581    2.1649   20.3202 C   0  0  0  0  0  0  0  0  0  0  0  0
    3.2175    2.0264   21.4313 C   0  0  0  0  0  0  0  0  0  0  0  0
    4.3870    1.3125   21.3195 C   0  0  0  0  0  0  0  0  0  0  0  0
    4.7446    0.6790   20.0925 C   0  0  0  0  0  0  0  0  0  0  0  0
    7.2111   -1.2584   21.7253 C   0  0  0  0  0  0  0  0  0  0  0  0
    8.4886   -0.8410   22.4826 C   0  0  2  0  0  0  0  0  0  0  0  0
    8.5254   -1.4043   23.9013 C   0  0  0  0  0  0  0  0  0  0  0  0
    9.9834    1.2938   22.2744 C   0  0  0  0  0  0  0  0  0  0  0  0
   11.1164    0.5237   21.9789 C   0  0  0  0  0  0  0  0  0  0  0  0
   12.3481    1.1376   21.8324 C   0  0  0  0  0  0  0  0  0  0  0  0
   13.7276    0.1302   21.5081 Cl  0  0  0  0  0  0  0  0  0  0  0  0
   12.5090    2.5259   21.8823 C   0  0  0  0  0  0  0  0  0  0  0  0
   11.3990    3.2933   22.1759 C   0  0  0  0  0  0  0  0  0  0  0  0
   10.1834    2.6710   22.4661 C   0  0  0  0  0  0  0  0  0  0  0  0
    9.1027    3.5160   23.0502 C   0  0  0  0  0  0  0  0  0  0  0  0
    9.2467    4.7267   23.1940 O   0  0  0  0  0  0  0  0  0  0  0  0
    4.3004    5.5507   21.4157 C   0  0  1  0  0  0  0  0  0  0  0  0
    2.8389    5.8093   21.7502 C   0  0  0  0  0  0  0  0  0  0  0  0
    4.9338    6.7378   20.6904 C   0  0  0  0  0  0  0  0  0  0  0  0
    5.0706    7.8662   21.5206 O   0  0  0  0  0  0  0  0  0  0  0  0
  2  1  1  1
  2  3  1  0
  3  4  1  0
  4  5  1  6
  5  6  1  0
  6  7  1  0
  7  8  1  0
  9  8  1  1
  9 10  1  0
 10 11  2  0
 10 12  1  0
 12 13  1  0
 13 14  2  0
 14 15  1  0
 15 16  2  0
 16 17  1  0
 17 18  2  0
 18 19  1  0
 19 20  2  0
 20 21  1  0
 21 22  2  0
 12 23  1  0
 23 24  1  0
 24 25  1  1
  9 26  1  0
 26 27  2  0
 27 28  1  0
 28 29  1  0
 28 30  2  0
 30 31  1  0
 31 32  2  0
 32 33  1  0
 33 34  2  0
  4 35  1  0
 35 36  1  1
 35 37  1  0
 37 38  1  0
 38  2  1  0
 33  7  1  0
 24  9  1  0
 32 26  1  0
 22 13  1  0
 22 17  1  0
M  CHG  1   4   1
M  END
$$$$

     RDKit          3D

 34 39  0  0  0  0  0  0  0  0999 V2000
   -8.4233   -3.8398  -23.7042 C   0  0  0  0  0  0  0  0  0  0  0  0
   -8.5219   -2.8451  -22.5579 C   0  0  1  0  0  0  0  0  0  0  0  0
   -7.2100   -2.5868  -21.8088 C   0  0  0  0  0  0  0  0  0  0  0  0
   -7.4909   -1.3363  -21.1338 N   0  0  0  0  0  0  0  0  0  0  0  0
   -6.6483   -0.8135  -20.1139 C   0  0  0  0  0  0  0  0  0  0  0  0
   -6.8702   -1.1695  -18.8070 C   0  0  0  0  0  0  0  0  0  0  0  0
   -6.0918   -0.7965  -17.7620 N   0  0  0  0  0  0  0  0  0  0  0  0
   -5.0644   -0.0252  -18.0155 C   0  0  0  0  0  0  0  0  0  0  0  0
   -4.7315    0.4448  -19.3192 C   0  0  0  0  0  0  0  0  0  0  0  0
   -3.6526    1.3429  -19.5259 C   0  0  0  0  0  0  0  0  0  0  0  0
   -3.3348    1.7597  -20.7901 C   0  0  0  0  0  0  0  0  0  0  0  0
   -4.0711    1.2905  -21.9020 C   0  0  0  0  0  0  0  0  0  0  0  0
   -5.1380    0.4473  -21.7201 C   0  0  0  0  0  0  0  0  0  0  0  0
   -5.5167    0.0178  -20.4140 C   0  0  0  0  0  0  0  0  0  0  0  0
   -8.4580   -0.5837  -21.7800 C   0  0  0  0  0  0  0  0  0  0  0  0
   -8.7595    0.5444  -21.4782 O   0  0  0  0  0  0  0  0  0  0  0  0
   -9.0454   -1.4384  -22.9392 C   0  0  1  0  0  0  0  0  0  0  0  0
   -8.4860   -0.9244  -24.2915 C   0  0  0  0  0  0  0  0  0  0  0  0
   -8.9099    0.4413  -24.5494 N   0  0  0  0  0  0  0  0  0  0  0  0
   -8.0373    1.3312  -25.2978 C   0  0  0  0  0  0  0  0  0  0  0  0
   -8.1040    1.1095  -26.7915 C   0  0  0  0  0  0  0  0  0  0  0  0
   -8.5184    1.9880  -27.8223 C   0  0  0  0  0  0  0  0  0  0  0  0
   -8.3593    1.2659  -28.9825 C   0  0  0  0  0  0  0  0  0  0  0  0
   -7.8740    0.0536  -28.6191 N   0  0  0  0  0  0  0  0  0  0  0  0
   -7.7023   -0.0607  -27.2935 N   0  0  0  0  0  0  0  0  0  0  0  0
  -10.1674    0.8861  -24.2472 C   0  0  0  0  0  0  0  0  0  0  0  0
  -10.5370    2.0341  -24.4653 O   0  0  0  0  0  0  0  0  0  0  0  0
  -11.0773   -0.1320  -23.6270 C   0  0  0  0  0  0  0  0  0  0  0  0
  -12.4455    0.1385  -23.6106 C   0  0  0  0  0  0  0  0  0  0  0  0
  -13.3276   -0.7786  -23.0758 C   0  0  0  0  0  0  0  0  0  0  0  0
  -12.8048   -1.9691  -22.5832 C   0  0  0  0  0  0  0  0  0  0  0  0
  -13.6542   -2.8636  -22.0506 F   0  0  0  0  0  0  0  0  0  0  0  0
  -11.4564   -2.2667  -22.5961 C   0  0  0  0  0  0  0  0  0  0  0  0
  -10.5543   -1.3060  -23.0654 C   0  0  0  0  0  0  0  0  0  0  0  0
  2  1  1  6
  2  3  1  0
  3  4  1  0
  4  5  1  0
  5  6  2  0
  6  7  1  0
  7  8  2  0
  8  9  1  0
  9 10  2  0
 10 11  1  0
 11 12  2  0
 12 13  1  0
 13 14  2  0
  4 15  1  0
 15 16  2  0
 15 17  1  0
 17 18  1  6
 18 19  1  0
 19 20  1  0
 20 21  1  0
 21 22  1  0
 22 23  2  0
 23 24  1  0
 24 25  1  0
 19 26  1  0
 26 27  2  0
 26 28  1  0
 28 29  2  0
 29 30  1  0
 30 31  2  0
 31 32  1  0
 31 33  1  0
 33 34  2  0
 17  2  1  0
 25 21  2  0
 34 28  1  0
 14  5  1  0
 34 17  1  0
 14  9  1  0
M  END
$$$$

     RDKit          3D

 25 28  0  0  0  0  0  0  0  0999 V2000
    6.9056    3.8971   24.5227 C   0  0  0  0  0  0  0  0  0  0  0  0
    8.1936    3.1541   24.1890 C   0  0  1  0  0  0  0  0  0  0  0  0
    8.2063    1.7608   24.8229 C   0  0  0  0  0  0  0  0  0  0  0  0
    7.7450    0.7688   23.7573 C   0  0  2  0  0  0  0  0  0  0  0  0
    8.5589   -0.5174   23.7902 C   0  0  0  0  0  0  0  0  0  0  0  0
    7.9973   -1.6812   24.3095 C   0  0  0  0  0  0  0  0  0  0  0  0
    8.7265   -2.8668   24.3539 C   0  0  0  0  0  0  0  0  0  0  0  0
   10.0359   -2.8980   23.8847 C   0  0  0  0  0  0  0  0  0  0  0  0
   10.6162   -1.7343   23.3883 C   0  0  0  0  0  0  0  0  0  0  0  0
    9.8871   -0.5507   23.3516 C   0  0  0  0  0  0  0  0  0  0  0  0
    7.8832    1.5040   22.5155 N   0  0  0  0  0  0  0  0  0  0  0  0
    7.6809    0.9911   21.2631 C   0  0  0  0  0  0  0  0  0  0  0  0
    8.1083    1.5610   20.2799 O   0  0  0  0  0  0  0  0  0  0  0  0
    6.8795   -0.3107   21.0799 C   0  0  0  0  0  0  0  0  0  0  0  0
    5.8606   -0.1802   19.9726 C   0  0  0  0  0  0  0  0  0  0  0  0
    6.0373   -0.8014   18.7656 C   0  0  0  0  0  0  0  0  0  0  0  0
    5.2204   -0.6736   17.6842 N   0  0  0  0  0  0  0  0  0  0  0  0
    4.1615    0.0827   17.8289 C   0  0  0  0  0  0  0  0  0  0  0  0
    3.8192    0.7449   19.0390 C   0  0  0  0  0  0  0  0  0  0  0  0
    2.6379    1.5139   19.1708 C   0  0  0  0  0  0  0  0  0  0  0  0
    2.3339    2.1491   20.3418 C   0  0  0  0  0  0  0  0  0  0  0  0
    3.2176    2.0523   21.4390 C   0  0  0  0  0  0  0  0  0  0  0  0
    4.3690    1.3116   21.3413 C   0  0  0  0  0  0  0  0  0  0  0  0
    4.6984    0.6253   20.1434 C   0  0  0  0  0  0  0  0  0  0  0  0
    8.3566    2.8760   22.6910 C   0  0  0  0  0  0  0  0  0  0  0  0
  2  1  1  6
  2  3  1  0
  3  4  1  0
  4  5  1  6
  5  6  2  0
  6  7  1  0
  7  8  2  0
  8  9  1  0
  9 10  2  0
  4 11  1  0
 11 12  1  0
 12 13  2  0
 12 14  1  0
 14 15  1  0
 15 16  2  0
 16 17  1  0
 17 18  2  0
 18 19  1  0
 19 20  2  0
 20 21  1  0
 21 22  2  0
 22 23  1  0
 23 24  2  0
 11 25  1  0
 25  2  1  0
 10  5  1  0
 24 15  1  0
 24 19  1  0
M  END
>  <cnnaffinities>  (36) 
[5.55057, 5.55055, 5.49377, 5.4936, 5.59562, 5.59591]

>  <score>  (36) 
5.55057

>  <index>  (36) 
16

>  <Smiles>  (36) 
C([C@]1(C([C@](c2c(c(c(c(c2[H])[H])[H])[H])[H])(N(C(=O)C(c2c(nc(c3c(c(c(c(c23)[H])[H])[H])[H])[H])[H])([H])[H])C1([H])[H])[H])([H])[H])[H])([H])([H])[H]

>  <h>  (36) 
<NA>

>  <Training>  (36) 
True

>  <Success>  (36) 
True

>  <enamine_searched>  (36) 
False

>  <enamine_id>  (36) 
nan

$$$$

     RDKit          3D

 26 29  0  0  0  0  0  0  0  0999 V2000
   -8.3021   -0.2260  -21.1958 O   0  0  0  0  0  0  0  0  0  0  0  0
   -7.8384   -1.3073  -21.4873 C   0  0  0  0  0  0  0  0  0  0  0  0
   -8.5975   -2.4281  -22.2026 C   0  0  1  0  0  0  0  0  0  0  0  0
   -9.9423   -1.9716  -22.7130 C   0  0  0  0  0  0  0  0  0  0  0  0
  -10.0684   -0.9677  -23.6695 C   0  0  0  0  0  0  0  0  0  0  0  0
  -11.3296   -0.5300  -24.0424 C   0  0  0  0  0  0  0  0  0  0  0  0
  -12.4777   -1.1082  -23.5108 C   0  0  0  0  0  0  0  0  0  0  0  0
  -14.0232   -0.4979  -23.9553 Cl  0  0  0  0  0  0  0  0  0  0  0  0
  -12.3660   -2.1620  -22.6099 C   0  0  0  0  0  0  0  0  0  0  0  0
  -13.7652   -2.9445  -21.9539 Cl  0  0  0  0  0  0  0  0  0  0  0  0
  -11.0990   -2.5743  -22.2160 C   0  0  0  0  0  0  0  0  0  0  0  0
   -7.6969   -3.0831  -23.2517 C   0  0  0  0  0  0  0  0  0  0  0  0
   -6.4837   -3.6978  -22.5674 C   0  0  2  0  0  0  0  0  0  0  0  0
   -6.8587   -4.7606  -21.7023 O   0  0  0  0  0  0  0  0  0  0  0  0
   -5.7272   -2.6540  -21.7546 C   0  0  0  0  0  0  0  0  0  0  0  0
   -6.5583   -1.6559  -21.0920 N   0  0  0  0  0  0  0  0  0  0  0  0
   -5.9756   -0.8896  -20.0380 C   0  0  0  0  0  0  0  0  0  0  0  0
   -6.3915   -1.0839  -18.7448 C   0  0  0  0  0  0  0  0  0  0  0  0
   -5.8385   -0.4954  -17.6513 N   0  0  0  0  0  0  0  0  0  0  0  0
   -4.8573    0.3555  -17.8542 C   0  0  0  0  0  0  0  0  0  0  0  0
   -4.3489    0.6875  -19.1468 C   0  0  0  0  0  0  0  0  0  0  0  0
   -3.3147    1.6488  -19.3263 C   0  0  0  0  0  0  0  0  0  0  0  0
   -2.8447    1.9469  -20.5763 C   0  0  0  0  0  0  0  0  0  0  0  0
   -3.4113    1.3108  -21.7117 C   0  0  0  0  0  0  0  0  0  0  0  0
   -4.4375    0.4053  -21.5713 C   0  0  0  0  0  0  0  0  0  0  0  0
   -4.9239    0.0578  -20.2798 C   0  0  0  0  0  0  0  0  0  0  0  0
  1  2  2  0
  2  3  1  0
  3  4  1  6
  4  5  2  0
  5  6  1  0
  6  7  2  0
  7  8  1  0
  7  9  1  0
  9 10  1  0
  9 11  2  0
  3 12  1  0
 12 13  1  0
 13 14  1  1
 13 15  1  0
 15 16  1  0
 16 17  1  0
 17 18  2  0
 18 19  1  0
 19 20  2  0
 20 21  1  0
 21 22  2  0
 22 23  1  0
 23 24  2  0
 24 25  1  0
 25 26  2  0
 16  2  1  0
 26 17  1  0
 11  4  1  0
 26 21  1  0
M  END
$$$$

     RDKit          3D

 35 40  0  0  0  0  0  0  0  0999 V2000
    8.2112   -1.9236   23.9687 C   0  0  0  0  0  0  0  0  0  0  0  0
    8.2494   -1.2187   22.6183 C   0  0  1  0  0  0  0  0  0  0  0  0
    6.9944   -1.4922   21.7818 C   0  0  0  0  0  0  0  0  0  0  0  0
    6.8661   -0.3018   20.9726 N   0  0  0  0  0  0  0  0  0  0  0  0
    5.9007   -0.1501   19.9610 C   0  0  0  0  0  0  0  0  0  0  0  0
    6.0863   -0.7827   18.7607 C   0  0  0  0  0  0  0  0  0  0  0  0
    5.2734   -0.6406   17.6896 N   0  0  0  0  0  0  0  0  0  0  0  0
    4.2206    0.1267   17.8506 C   0  0  0  0  0  0  0  0  0  0  0  0
    3.8828    0.7887   19.0643 C   0  0  0  0  0  0  0  0  0  0  0  0
    2.7121    1.5800   19.1815 C   0  0  0  0  0  0  0  0  0  0  0  0
    2.3745    2.1536   20.3727 C   0  0  0  0  0  0  0  0  0  0  0  0
    3.2105    1.9974   21.5023 C   0  0  0  0  0  0  0  0  0  0  0  0
    4.3687    1.2673   21.4077 C   0  0  0  0  0  0  0  0  0  0  0  0
    4.7356    0.6452   20.1774 C   0  0  0  0  0  0  0  0  0  0  0  0
    7.6167    0.7681   21.3964 C   0  0  0  0  0  0  0  0  0  0  0  0
    7.6174    1.8517   20.8481 O   0  0  0  0  0  0  0  0  0  0  0  0
    8.3920    0.3318   22.6589 C   0  0  1  0  0  0  0  0  0  0  0  0
    7.7203    0.9270   23.9284 C   0  0  0  0  0  0  0  0  0  0  0  0
    7.8556    2.3778   24.0061 N   0  0  0  0  0  0  0  0  0  0  0  0
    6.6401    3.1892   23.9960 C   0  0  0  0  0  0  0  0  0  0  0  0
    5.7068    2.8351   25.0997 C   0  0  0  0  0  0  0  0  0  0  0  0
    4.4986    2.3359   24.9839 N   0  0  0  0  0  0  0  0  0  0  0  0
    3.9972    2.1670   26.2491 N   0  0  0  0  0  0  0  0  0  0  0  0
    4.9160    2.5716   27.0781 C   0  0  0  0  0  0  0  0  0  0  0  0
    6.0221    3.0138   26.4149 N   0  0  0  0  0  0  0  0  0  0  0  0
    7.2878    3.4727   26.9584 C   0  0  0  0  0  0  0  0  0  0  0  0
    9.0211    3.0046   23.6481 C   0  0  0  0  0  0  0  0  0  0  0  0
    9.1547    4.2210   23.7241 O   0  0  0  0  0  0  0  0  0  0  0  0
   10.1165    2.1131   23.1383 C   0  0  0  0  0  0  0  0  0  0  0  0
   11.4271    2.5875   23.1312 C   0  0  0  0  0  0  0  0  0  0  0  0
   12.4572    1.8317   22.6004 C   0  0  0  0  0  0  0  0  0  0  0  0
   12.1264    0.6098   22.0251 C   0  0  0  0  0  0  0  0  0  0  0  0
   13.0869   -0.1444   21.4623 F   0  0  0  0  0  0  0  0  0  0  0  0
   10.8373    0.1258   21.9965 C   0  0  0  0  0  0  0  0  0  0  0  0
    9.8127    0.8483   22.6135 C   0  0  0  0  0  0  0  0  0  0  0  0
  2  1  1  1
  2  3  1  0
  3  4  1  0
  4  5  1  0
  5  6  2  0
  6  7  1  0
  7  8  2  0
  8  9  1  0
  9 10  2  0
 10 11  1  0
 11 12  2  0
 12 13  1  0
 13 14  2  0
  4 15  1  0
 15 16  2  0
 15 17  1  0
 17 18  1  1
 18 19  1  0
 19 20  1  0
 20 21  1  0
 21 22  2  0
 22 23  1  0
 23 24  2  0
 24 25  1  0
 25 26  1  0
 19 27  1  0
 27 28  2  0
 27 29  1  0
 29 30  2  0
 30 31  1  0
 31 32  2  0
 32 33  1  0
 32 34  1  0
 34 35  2  0
 17  2  1  0
 25 21  1  0
 35 29  1  0
 14  5  1  0
 35 17  1  0
 14  9  1  0
M  END
>  <cnnaffinities>  (38) 
[6.0697, 6.11515, 6.14091, 6.15629]

>  <score>  (38) 
6.0697

>  <index>  (38) 
17

>  <Smiles>  (38) 
C([C@]1(C(N(c2c(nc(c3c(c(c(c(c23)[H])[H])[H])[H])[H])[H])C(=O)[C@]21C(N(C(c1nnc(n1C([H])([H])[H])[H])([H])[H])C(=O)c1c(c(c(F)c(c21)[H])[H])[H])([H])[H])([H])[H])[H])([H])([H])[H]

>  <h>  (38) 
<NA>

>  <Training>  (38) 
True

>  <Success>  (38) 
True

>  <enamine_searched>  (38) 
False

>  <enamine_id>  (38) 
nan

$$$$

     RDKit          3D

 39 44  0  0  0  0  0  0  0  0999 V2000
   -7.0173    3.6302  -22.4781 C   0  0  0  0  0  0  0  0  0  0  0  0
   -7.7707    2.6688  -23.2579 N   0  0  0  0  0  0  0  0  0  0  0  0
   -7.4867    2.5193  -24.5718 C   0  0  0  0  0  0  0  0  0  0  0  0
   -6.7235    3.2506  -25.1866 O   0  0  0  0  0  0  0  0  0  0  0  0
   -8.1583    1.3625  -25.3223 C   0  0  0  0  0  0  0  0  0  0  0  0
   -8.9830    0.4679  -24.5507 N   0  0  0  0  0  0  0  0  0  0  0  0
   -8.5106   -0.8802  -24.2785 C   0  0  0  0  0  0  0  0  0  0  0  0
   -9.0730   -1.4223  -22.9386 C   0  0  2  0  0  0  0  0  0  0  0  0
   -8.4725   -0.5761  -21.7846 C   0  0  0  0  0  0  0  0  0  0  0  0
   -8.7607    0.5752  -21.5081 O   0  0  0  0  0  0  0  0  0  0  0  0
   -7.5081   -1.3105  -21.1412 N   0  0  0  0  0  0  0  0  0  0  0  0
   -6.6613   -0.7882  -20.1214 C   0  0  0  0  0  0  0  0  0  0  0  0
   -6.8861   -1.1486  -18.8156 C   0  0  0  0  0  0  0  0  0  0  0  0
   -6.1172   -0.7657  -17.7671 N   0  0  0  0  0  0  0  0  0  0  0  0
   -5.0888    0.0079  -18.0163 C   0  0  0  0  0  0  0  0  0  0  0  0
   -4.7445    0.4706  -19.3182 C   0  0  0  0  0  0  0  0  0  0  0  0
   -3.6584    1.3626  -19.5273 C   0  0  0  0  0  0  0  0  0  0  0  0
   -3.3280    1.7602  -20.7920 C   0  0  0  0  0  0  0  0  0  0  0  0
   -4.0580    1.2857  -21.9049 C   0  0  0  0  0  0  0  0  0  0  0  0
   -5.1382    0.4563  -21.7245 C   0  0  0  0  0  0  0  0  0  0  0  0
   -5.5291    0.0432  -20.4177 C   0  0  0  0  0  0  0  0  0  0  0  0
   -7.2208   -2.5585  -21.8191 C   0  0  0  0  0  0  0  0  0  0  0  0
   -8.5262   -2.8310  -22.5766 C   0  0  2  0  0  0  0  0  0  0  0  0
   -8.3841   -3.8571  -23.7163 C   0  0  0  0  0  0  0  0  0  0  0  0
   -9.7299   -4.2945  -24.2678 C   0  0  0  0  0  0  0  0  0  0  0  0
  -10.5782   -5.0567  -23.4638 C   0  0  0  0  0  0  0  0  0  0  0  0
  -11.8781   -5.3428  -23.8548 C   0  0  0  0  0  0  0  0  0  0  0  0
  -12.2953   -5.0583  -25.1488 C   0  0  0  0  0  0  0  0  0  0  0  0
  -11.4423   -4.3602  -25.9904 C   0  0  0  0  0  0  0  0  0  0  0  0
  -10.1938   -3.9387  -25.5365 C   0  0  0  0  0  0  0  0  0  0  0  0
  -10.5818   -1.2883  -23.0411 C   0  0  0  0  0  0  0  0  0  0  0  0
  -11.4721   -2.2227  -22.5187 C   0  0  0  0  0  0  0  0  0  0  0  0
  -12.8285   -1.9640  -22.5018 C   0  0  0  0  0  0  0  0  0  0  0  0
  -13.8626   -3.1446  -21.7397 Cl  0  0  0  0  0  0  0  0  0  0  0  0
  -13.3715   -0.7942  -23.0291 C   0  0  0  0  0  0  0  0  0  0  0  0
  -12.5034    0.1157  -23.5925 C   0  0  0  0  0  0  0  0  0  0  0  0
  -11.1341   -0.1385  -23.6197 C   0  0  0  0  0  0  0  0  0  0  0  0
  -10.2528    0.8820  -24.2605 C   0  0  0  0  0  0  0  0  0  0  0  0
  -10.6393    2.0208  -24.4966 O   0  0  0  0  0  0  0  0  0  0  0  0
  1  2  1  0
  2  3  1  0
  3  4  2  0
  3  5  1  0
  5  6  1  0
  6  7  1  0
  8  7  1  6
  8  9  1  0
  9 10  2  0
  9 11  1  0
 11 12  1  0
 12 13  2  0
 13 14  1  0
 14 15  2  0
 15 16  1  0
 16 17  2  0
 17 18  1  0
 18 19  2  0
 19 20  1  0
 20 21  2  0
 11 22  1  0
 22 23  1  0
 23 24  1  6
 24 25  1  0
 25 26  2  0
 26 27  1  0
 27 28  2  0
 28 29  1  0
 29 30  2  0
  8 31  1  0
 31 32  2  0
 32 33  1  0
 33 34  1  0
 33 35  2  0
 35 36  1  0
 36 37  2  0
 37 38  1  0
 38 39  2  0
 38  6  1  0
 23  8  1  0
 30 25  1  0
 37 31  1  0
 21 12  1  0
 21 16  1  0
M  END
$$$$

     RDKit          3D

 24 27  0  0  0  0  0  0  0  0999 V2000
    5.1320    0.3997   29.9644 C   0  0  0  0  0  0  0  0  0  0  0  0
    5.0263   -0.3165   28.6214 C   0  0  1  0  0  0  0  0  0  0  0  0
    4.8425    0.6704   27.4680 C   0  0  0  0  0  0  0  0  0  0  0  0
    4.7814   -0.0263   26.1050 C   0  0  0  0  0  0  0  0  0  0  0  0
    5.9697   -0.9750   25.8235 C   0  0  2  0  0  0  0  0  0  0  0  0
    7.2605   -0.1829   25.5235 C   0  0  0  0  0  0  0  0  0  0  0  0
    7.2844    0.0599   24.0100 C   0  0  0  0  0  0  0  0  0  0  0  0
    6.4213   -0.9816   23.4696 N   0  0  0  0  0  0  0  0  0  0  0  0
    6.2856   -1.3349   22.1549 C   0  0  0  0  0  0  0  0  0  0  0  0
    5.7266   -2.3662   21.8253 O   0  0  0  0  0  0  0  0  0  0  0  0
    6.8394   -0.3736   21.0818 C   0  0  0  0  0  0  0  0  0  0  0  0
    5.8577   -0.1892   19.9531 C   0  0  0  0  0  0  0  0  0  0  0  0
    6.0377   -0.8147   18.7491 C   0  0  0  0  0  0  0  0  0  0  0  0
    5.2310   -0.6795   17.6631 N   0  0  0  0  0  0  0  0  0  0  0  0
    4.1706    0.0765   17.8024 C   0  0  0  0  0  0  0  0  0  0  0  0
    3.8192    0.7319   19.0142 C   0  0  0  0  0  0  0  0  0  0  0  0
    2.6265    1.4845   19.1478 C   0  0  0  0  0  0  0  0  0  0  0  0
    2.3020    2.0933   20.3271 C   0  0  0  0  0  0  0  0  0  0  0  0
    3.1828    2.0022   21.4264 C   0  0  0  0  0  0  0  0  0  0  0  0
    4.3508    1.2895   21.3237 C   0  0  0  0  0  0  0  0  0  0  0  0
    4.6937    0.6162   20.1197 C   0  0  0  0  0  0  0  0  0  0  0  0
    5.7495   -1.7545   24.5093 C   0  0  0  0  0  0  0  0  0  0  0  0
    6.1366   -1.9320   27.0182 C   0  0  0  0  0  0  0  0  0  0  0  0
    6.2356   -1.2095   28.3595 C   0  0  0  0  0  0  0  0  0  0  0  0
  2  1  1  1
  2  3  1  0
  3  4  1  0
  5  4  1  1
  5  6  1  0
  6  7  1  0
  7  8  1  0
  8  9  1  0
  9 10  2  0
  9 11  1  0
 11 12  1  0
 12 13  2  0
 13 14  1  0
 14 15  2  0
 15 16  1  0
 16 17  2  0
 17 18  1  0
 18 19  2  0
 19 20  1  0
 20 21  2  0
  8 22  1  0
  5 23  1  0
 23 24  1  0
 24  2  1  0
 22  5  1  0
 21 12  1  0
 21 16  1  0
M  END
$$$$

     RDKit          3D

 39 43  0  0  0  0  0  0  0  0999 V2000
   12.4391    0.3459   21.9871 O   0  0  0  0  0  0  0  0  0  0  0  0
   11.9468    0.4378   23.1045 C   0  0  0  0  0  0  0  0  0  0  0  0
   11.2780   -0.7994   23.7070 C   0  0  0  0  0  0  0  0  0  0  0  0
   10.9698   -1.6867   22.5387 N   0  0  1  0  0  0  0  0  0  0  0  0
   10.7904   -3.1063   22.9082 C   0  0  0  0  0  0  0  0  0  0  0  0
    9.5378   -3.3094   23.7324 C   0  0  0  0  0  0  0  0  0  0  0  0
    9.4525   -4.3447   24.6530 C   0  0  0  0  0  0  0  0  0  0  0  0
    8.2655   -4.6013   25.3212 C   0  0  0  0  0  0  0  0  0  0  0  0
    7.1617   -3.7886   25.0943 C   0  0  0  0  0  0  0  0  0  0  0  0
    5.6748   -4.1083   25.9350 Cl  0  0  0  0  0  0  0  0  0  0  0  0
    7.2445   -2.7144   24.2279 C   0  0  0  0  0  0  0  0  0  0  0  0
    8.4342   -2.4733   23.5417 C   0  0  0  0  0  0  0  0  0  0  0  0
    8.4674   -1.3300   22.5575 C   0  0  2  0  0  0  0  0  0  0  0  0
    7.3201   -1.4416   21.5592 C   0  0  0  0  0  0  0  0  0  0  0  0
    6.8894   -2.5036   21.1541 O   0  0  0  0  0  0  0  0  0  0  0  0
    6.8455   -0.2378   21.0957 N   0  0  0  0  0  0  0  0  0  0  0  0
    5.9244   -0.1349   20.0349 C   0  0  0  0  0  0  0  0  0  0  0  0
    6.1542   -0.7551   18.8333 C   0  0  0  0  0  0  0  0  0  0  0  0
    5.3643   -0.6114   17.7429 N   0  0  0  0  0  0  0  0  0  0  0  0
    4.3018    0.1487   17.8642 C   0  0  0  0  0  0  0  0  0  0  0  0
    3.9289    0.8174   19.0645 C   0  0  0  0  0  0  0  0  0  0  0  0
    2.7549    1.6068   19.1682 C   0  0  0  0  0  0  0  0  0  0  0  0
    2.4112    2.1870   20.3596 C   0  0  0  0  0  0  0  0  0  0  0  0
    3.2314    2.0233   21.5009 C   0  0  0  0  0  0  0  0  0  0  0  0
    4.3848    1.2842   21.4202 C   0  0  0  0  0  0  0  0  0  0  0  0
    4.7584    0.6693   20.1963 C   0  0  0  0  0  0  0  0  0  0  0  0
    9.7435   -1.3298   21.7203 C   0  0  0  0  0  0  0  0  0  0  0  0
   11.9682    1.5676   23.8617 N   0  0  0  0  0  0  0  0  0  0  0  0
   12.2998    2.8701   23.2962 C   0  0  0  0  0  0  0  0  0  0  0  0
   11.1952    3.4267   22.3722 C   0  0  0  0  0  0  0  0  0  0  0  0
    9.8327    3.5350   23.0167 C   0  0  0  0  0  0  0  0  0  0  0  0
    8.8710    2.5220   22.9327 C   0  0  0  0  0  0  0  0  0  0  0  0
    7.6502    2.6383   23.5877 C   0  0  0  0  0  0  0  0  0  0  0  0
    7.3488    3.7837   24.3240 C   0  0  0  0  0  0  0  0  0  0  0  0
    6.0470    3.9129   25.0574 C   0  0  0  0  0  0  0  0  0  0  0  0
    6.2521    3.8786   26.4076 F   0  0  0  0  0  0  0  0  0  0  0  0
    5.4517    5.1147   24.7933 F   0  0  0  0  0  0  0  0  0  0  0  0
    8.2878    4.8101   24.3889 C   0  0  0  0  0  0  0  0  0  0  0  0
    9.5033    4.6814   23.7350 C   0  0  0  0  0  0  0  0  0  0  0  0
  1  2  2  0
  2  3  1  0
  4  3  1  1
  4  5  1  0
  5  6  1  0
  6  7  2  0
  7  8  1  0
  8  9  2  0
  9 10  1  0
  9 11  1  0
 11 12  2  0
 12 13  1  0
 13 14  1  6
 14 15  2  0
 14 16  1  0
 16 17  1  0
 17 18  2  0
 18 19  1  0
 19 20  2  0
 20 21  1  0
 21 22  2  0
 22 23  1  0
 23 24  2  0
 24 25  1  0
 25 26  2  0
 13 27  1  0
  2 28  1  0
 28 29  1  0
 29 30  1  0
 30 31  1  0
 31 32  2  0
 32 33  1  0
 33 34  2  0
 34 35  1  0
 35 36  1  0
 35 37  1  0
 34 38  1  0
 38 39  2  0
 27  4  1  0
 39 31  1  0
 12  6  1  0
 26 17  1  0
 26 21  1  0
M  CHG  1   4   1
M  END
>  <cnnaffinities>  (41) 
[6.5702, 6.00054]

>  <score>  (41) 
6.5702

>  <index>  (41) 
19

>  <Smiles>  (41) 
O=C(C([N@+]1(C(c2c(c(c(Cl)c(c2[C@](C(=O)N(c2c(nc(c3c(c(c(c(c23)[H])[H])[H])[H])[H])[H])[H])(C1([H])[H])[H])[H])[H])[H])([H])[H])[H])([H])[H])N(C(C(c1c(c(c(C(F)(F)[H])c(c1[H])[H])[H])[H])([H])[H])([H])[H])[H]

>  <h>  (41) 
<NA>

>  <Training>  (41) 
True

>  <Success>  (41) 
True

>  <enamine_searched>  (41) 
False

>  <enamine_id>  (41) 
nan

$$$$

     RDKit          3D

 37 41  0  0  0  0  0  0  0  0999 V2000
    8.6236   -1.8238   21.5650 C   0  0  0  0  0  0  0  0  0  0  0  0
    8.0422   -0.4578   21.2314 C   0  0  0  0  0  0  0  0  0  0  0  0
    6.5438   -0.4382   21.3990 C   0  0  0  0  0  0  0  0  0  0  0  0
    6.0490   -0.6175   22.4973 O   0  0  0  0  0  0  0  0  0  0  0  0
    5.8122   -0.2058   20.2411 N   0  0  0  0  0  0  0  0  0  0  0  0
    6.3296   -0.7035   18.9629 C   0  0  0  0  0  0  0  0  0  0  0  0
    5.1730   -1.0503   18.0463 C   0  0  0  0  0  0  0  0  0  0  0  0
    4.3398    0.2025   17.8256 C   0  0  0  0  0  0  0  0  0  0  0  0
    3.8776    0.7750   19.1421 C   0  0  0  0  0  0  0  0  0  0  0  0
    2.7131    1.5274   19.2362 C   0  0  0  0  0  0  0  0  0  0  0  0
    2.3442    2.1662   20.4079 C   0  0  0  0  0  0  0  0  0  0  0  0
    3.1913    2.0638   21.5069 C   0  0  0  0  0  0  0  0  0  0  0  0
    2.8527    2.7365   22.7090 N   0  0  0  0  0  0  0  0  0  0  0  0
    2.2388    3.9844   22.6297 C   0  0  0  0  0  0  0  0  0  0  0  0
    2.3098    4.6435   21.6099 O   0  0  0  0  0  0  0  0  0  0  0  0
    1.4598    4.4483   23.8571 C   0  0  0  0  0  0  0  0  0  0  0  0
    0.4229    3.4451   24.2923 C   0  0  0  0  0  0  0  0  0  0  0  0
    0.4648    2.8987   25.5516 C   0  0  0  0  0  0  0  0  0  0  0  0
   -0.3968    1.9648   26.0130 N   0  0  0  0  0  0  0  0  0  0  0  0
   -1.3399    1.5550   25.1960 C   0  0  0  0  0  0  0  0  0  0  0  0
   -1.5042    2.0309   23.8703 C   0  0  0  0  0  0  0  0  0  0  0  0
   -2.5580    1.5828   23.0313 C   0  0  0  0  0  0  0  0  0  0  0  0
   -2.7219    2.1041   21.7768 C   0  0  0  0  0  0  0  0  0  0  0  0
   -1.8269    3.0869   21.2998 C   0  0  0  0  0  0  0  0  0  0  0  0
   -0.7789    3.5193   22.0807 C   0  0  0  0  0  0  0  0  0  0  0  0
   -0.6002    3.0116   23.3994 C   0  0  0  0  0  0  0  0  0  0  0  0
    3.0718    2.0970   23.9158 N   0  0  0  0  0  0  0  0  0  0  0  0
    2.5250    0.7572   24.0653 C   0  0  0  0  0  0  0  0  0  0  0  0
    4.0264    2.6131   24.7947 C   0  0  0  0  0  0  0  0  0  0  0  0
    5.0017    3.5271   24.3679 C   0  0  0  0  0  0  0  0  0  0  0  0
    5.8782    4.0829   25.2903 C   0  0  0  0  0  0  0  0  0  0  0  0
    5.8201    3.7421   26.6384 C   0  0  0  0  0  0  0  0  0  0  0  0
    4.8615    2.8237   27.0443 C   0  0  0  0  0  0  0  0  0  0  0  0
    4.7643    2.3676   28.7239 Cl  0  0  0  0  0  0  0  0  0  0  0  0
    3.9679    2.2539   26.1455 C   0  0  0  0  0  0  0  0  0  0  0  0
    4.3211    1.2629   21.4799 C   0  0  0  0  0  0  0  0  0  0  0  0
    4.6586    0.6035   20.2949 C   0  0  0  0  0  0  0  0  0  0  0  0
  1  2  1  0
  2  3  1  0
  3  4  2  0
  3  5  1  0
  5  6  1  0
  6  7  1  0
  7  8  1  0
  8  9  1  0
  9 10  2  0
 10 11  1  0
 11 12  2  0
 12 13  1  0
 13 14  1  0
 14 15  2  0
 14 16  1  0
 16 17  1  0
 17 18  2  0
 18 19  1  0
 19 20  2  0
 20 21  1  0
 21 22  2  0
 22 23  1  0
 23 24  2  0
 24 25  1  0
 25 26  2  0
 13 27  1  0
 27 28  1  0
 27 29  1  0
 29 30  2  0
 30 31  1  0
 31 32  2  0
 32 33  1  0
 33 34  1  0
 33 35  2  0
 12 36  1  0
 36 37  2  0
 37  5  1  0
 37  9  1  0
 26 17  1  0
 35 29  1  0
 26 21  1  0
M  END
$$$$

     RDKit          3D

 35 40  0  0  0  0  0  0  0  0999 V2000
    7.1156   -1.2421   24.2034 C   0  0  0  0  0  0  0  0  0  0  0  0
    7.9494   -1.1381   22.9148 C   0  0  1  0  0  0  0  0  0  0  0  0
    7.1179   -1.5360   21.6729 C   0  0  0  0  0  0  0  0  0  0  0  0
    6.8229   -0.2733   21.0342 N   0  0  0  0  0  0  0  0  0  0  0  0
    5.8977   -0.1265   19.9763 C   0  0  0  0  0  0  0  0  0  0  0  0
    6.0861   -0.7710   18.7812 C   0  0  0  0  0  0  0  0  0  0  0  0
    5.2804   -0.6325   17.7032 N   0  0  0  0  0  0  0  0  0  0  0  0
    4.2270    0.1407   17.8389 C   0  0  0  0  0  0  0  0  0  0  0  0
    3.8825    0.8223   19.0406 C   0  0  0  0  0  0  0  0  0  0  0  0
    2.7061    1.6074   19.1582 C   0  0  0  0  0  0  0  0  0  0  0  0
    2.3681    2.1816   20.3546 C   0  0  0  0  0  0  0  0  0  0  0  0
    3.2082    2.0327   21.4782 C   0  0  0  0  0  0  0  0  0  0  0  0
    4.3725    1.3094   21.3790 C   0  0  0  0  0  0  0  0  0  0  0  0
    4.7368    0.6832   20.1556 C   0  0  0  0  0  0  0  0  0  0  0  0
    7.6795    0.7468   21.3839 C   0  0  0  0  0  0  0  0  0  0  0  0
    7.7681    1.8013   20.7868 O   0  0  0  0  0  0  0  0  0  0  0  0
    8.5271    0.2872   22.5890 C   0  0  1  0  0  0  0  0  0  0  0  0
    8.3847    1.2623   23.7915 C   0  0  0  0  0  0  0  0  0  0  0  0
    9.0060    2.5560   23.5532 N   0  0  0  0  0  0  0  0  0  0  0  0
    8.3457    3.7879   23.9935 C   0  0  0  0  0  0  0  0  0  0  0  0
    7.4867    4.4190   22.9284 C   0  0  0  0  0  0  0  0  0  0  0  0
    7.8744    5.4767   22.0819 C   0  0  0  0  0  0  0  0  0  0  0  0
    6.9518    5.7471   21.1682 N   0  0  0  0  0  0  0  0  0  0  0  0
    5.9632    4.8801   21.4157 N   0  0  0  0  0  0  0  0  0  0  0  0
    4.8106    4.8541   20.5403 C   0  0  0  0  0  0  0  0  0  0  0  0
    6.2317    4.0681   22.4689 C   0  0  0  0  0  0  0  0  0  0  0  0
   10.2301    2.6811   22.9458 C   0  0  0  0  0  0  0  0  0  0  0  0
   10.8276    3.7483   22.8797 O   0  0  0  0  0  0  0  0  0  0  0  0
   10.8084    1.4065   22.4043 C   0  0  0  0  0  0  0  0  0  0  0  0
   12.1831    1.3550   22.1605 C   0  0  0  0  0  0  0  0  0  0  0  0
   12.7848    0.1874   21.7277 C   0  0  0  0  0  0  0  0  0  0  0  0
   11.9653   -0.9016   21.4598 C   0  0  0  0  0  0  0  0  0  0  0  0
   12.5284   -2.0380   21.0204 F   0  0  0  0  0  0  0  0  0  0  0  0
   10.5936   -0.8538   21.6165 C   0  0  0  0  0  0  0  0  0  0  0  0
   10.0010    0.2770   22.1891 C   0  0  0  0  0  0  0  0  0  0  0  0
  2  1  1  1
  2  3  1  0
  3  4  1  0
  4  5  1  0
  5  6  2  0
  6  7  1  0
  7  8  2  0
  8  9  1  0
  9 10  2  0
 10 11  1  0
 11 12  2  0
 12 13  1  0
 13 14  2  0
  4 15  1  0
 15 16  2  0
 15 17  1  0
 17 18  1  1
 18 19  1  0
 19 20  1  0
 20 21  1  0
 21 22  1  0
 22 23  2  0
 23 24  1  0
 24 25  1  0
 24 26  1  0
 19 27  1  0
 27 28  2  0
 27 29  1  0
 29 30  2  0
 30 31  1  0
 31 32  2  0
 32 33  1  0
 32 34  1  0
 34 35  2  0
 17  2  1  0
 26 21  2  0
 35 29  1  0
 14  5  1  0
 35 17  1  0
 14  9  1  0
M  END
>  <cnnaffinities>  (43) 
[6.12738, 6.23737, 6.06132, 6.14128]

>  <score>  (43) 
6.12738

>  <index>  (43) 
21

>  <Smiles>  (43) 
C([C@]1(C(N(c2c(nc(c3c(c(c(c(c23)[H])[H])[H])[H])[H])[H])C(=O)[C@]21C(N(C(c1c(nn(C([H])([H])[H])c1[H])[H])([H])[H])C(=O)c1c(c(c(F)c(c21)[H])[H])[H])([H])[H])([H])[H])[H])([H])([H])[H]

>  <h>  (43) 
<NA>

>  <Training>  (43) 
True

>  <Success>  (43) 
True

>  <enamine_searched>  (43) 
False

>  <enamine_id>  (43) 
nan

$$$$

     RDKit          3D

 24 27  0  0  0  0  0  0  0  0999 V2000
    7.7992    1.7712   20.3865 O   0  0  0  0  0  0  0  0  0  0  0  0
    7.7884    0.8880   21.2254 C   0  0  0  0  0  0  0  0  0  0  0  0
    6.8723   -0.3413   21.0820 C   0  0  0  0  0  0  0  0  0  0  0  0
    5.8655   -0.1864   19.9734 C   0  0  0  0  0  0  0  0  0  0  0  0
    6.0639   -0.7877   18.7570 C   0  0  0  0  0  0  0  0  0  0  0  0
    5.2654   -0.6457   17.6671 N   0  0  0  0  0  0  0  0  0  0  0  0
    4.1925    0.0931   17.8095 C   0  0  0  0  0  0  0  0  0  0  0  0
    3.8274    0.7383   19.0216 C   0  0  0  0  0  0  0  0  0  0  0  0
    2.6422    1.5051   19.1410 C   0  0  0  0  0  0  0  0  0  0  0  0
    2.3096    2.0982   20.3273 C   0  0  0  0  0  0  0  0  0  0  0  0
    3.1859    2.0028   21.4298 C   0  0  0  0  0  0  0  0  0  0  0  0
    4.3566    1.2909   21.3288 C   0  0  0  0  0  0  0  0  0  0  0  0
    4.6946    0.6143   20.1291 C   0  0  0  0  0  0  0  0  0  0  0  0
    8.6343    0.9209   22.2962 N   0  0  0  0  0  0  0  0  0  0  0  0
    8.4508    0.0537   23.4543 C   0  0  0  0  0  0  0  0  0  0  0  0
    9.3361    0.5013   24.6081 C   0  0  0  0  0  0  0  0  0  0  0  0
   10.7419    0.7346   24.1248 C   0  0  0  0  0  0  0  0  0  0  0  0
   11.8621    0.2105   24.7626 C   0  0  0  0  0  0  0  0  0  0  0  0
   11.7005   -0.8756   26.1222 Cl  0  0  0  0  0  0  0  0  0  0  0  0
   13.1470    0.5002   24.3307 C   0  0  0  0  0  0  0  0  0  0  0  0
   13.3174    1.3472   23.2391 C   0  0  0  0  0  0  0  0  0  0  0  0
   12.2077    1.8262   22.5435 C   0  0  0  0  0  0  0  0  0  0  0  0
   10.9210    1.5066   22.9730 C   0  0  0  0  0  0  0  0  0  0  0  0
    9.6641    1.9706   22.2749 C   0  0  0  0  0  0  0  0  0  0  0  0
  1  2  2  0
  2  3  1  0
  3  4  1  0
  4  5  2  0
  5  6  1  0
  6  7  2  0
  7  8  1  0
  8  9  2  0
  9 10  1  0
 10 11  2  0
 11 12  1  0
 12 13  2  0
  2 14  1  0
 14 15  1  0
 15 16  1  0
 16 17  1  0
 17 18  2  0
 18 19  1  0
 18 20  1  0
 20 21  2  0
 21 22  1  0
 22 23  2  0
 23 24  1  0
 13  4  1  0
 24 14  1  0
 13  8  1  0
 23 17  1  0
M  END
$$$$

     RDKit          3D

 37 42  0  0  0  0  0  0  0  0999 V2000
    2.3628    6.6615   20.4468 C   0  0  0  0  0  0  0  0  0  0  0  0
    3.0228    6.2003   21.7279 C   0  0  1  0  0  0  0  0  0  0  0  0
    4.3520    5.5078   21.4643 C   0  0  0  0  0  0  0  0  0  0  0  0
    4.9905    5.0899   22.7522 N   0  0  1  0  0  0  0  0  0  0  0  0
    6.2804    4.4053   22.5016 C   0  0  0  0  0  0  0  0  0  0  0  0
    6.8374    3.7309   23.7538 C   0  0  0  0  0  0  0  0  0  0  0  0
    7.9549    2.8765   23.3942 N   0  0  0  0  0  0  0  0  0  0  0  0
    7.9071    1.4353   23.5498 C   0  0  0  0  0  0  0  0  0  0  0  0
    8.5982    0.7121   22.3604 C   0  0  2  0  0  0  0  0  0  0  0  0
    7.7487    0.9723   21.0920 C   0  0  0  0  0  0  0  0  0  0  0  0
    7.6980    1.9809   20.4194 O   0  0  0  0  0  0  0  0  0  0  0  0
    6.9651   -0.1346   20.8506 N   0  0  0  0  0  0  0  0  0  0  0  0
    5.9316   -0.0899   19.8827 C   0  0  0  0  0  0  0  0  0  0  0  0
    6.0742   -0.7766   18.7038 C   0  0  0  0  0  0  0  0  0  0  0  0
    5.2346   -0.6698   17.6467 N   0  0  0  0  0  0  0  0  0  0  0  0
    4.1850    0.1059   17.7939 C   0  0  0  0  0  0  0  0  0  0  0  0
    3.8616    0.7960   18.9975 C   0  0  0  0  0  0  0  0  0  0  0  0
    2.6774    1.5706   19.1210 C   0  0  0  0  0  0  0  0  0  0  0  0
    2.3507    2.1644   20.3095 C   0  0  0  0  0  0  0  0  0  0  0  0
    3.2124    2.0380   21.4208 C   0  0  0  0  0  0  0  0  0  0  0  0
    4.3856    1.3279   21.3174 C   0  0  0  0  0  0  0  0  0  0  0  0
    4.7468    0.6867   20.0948 C   0  0  0  0  0  0  0  0  0  0  0  0
    7.2181   -1.2533   21.7288 C   0  0  0  0  0  0  0  0  0  0  0  0
    8.5006   -0.8411   22.4832 C   0  0  2  0  0  0  0  0  0  0  0  0
    8.5296   -1.4035   23.9038 C   0  0  0  0  0  0  0  0  0  0  0  0
   10.0025    1.2980   22.2640 C   0  0  0  0  0  0  0  0  0  0  0  0
   11.1446    0.5363   22.0044 C   0  0  0  0  0  0  0  0  0  0  0  0
   12.3713    1.1544   21.8484 C   0  0  0  0  0  0  0  0  0  0  0  0
   13.7678    0.1697   21.5564 Cl  0  0  0  0  0  0  0  0  0  0  0  0
   12.5219    2.5425   21.8970 C   0  0  0  0  0  0  0  0  0  0  0  0
   11.4015    3.3063   22.1716 C   0  0  0  0  0  0  0  0  0  0  0  0
   10.1844    2.6797   22.4414 C   0  0  0  0  0  0  0  0  0  0  0  0
    9.0979    3.5240   23.0151 C   0  0  0  0  0  0  0  0  0  0  0  0
    9.2364    4.7342   23.1408 O   0  0  0  0  0  0  0  0  0  0  0  0
    5.1085    6.2801   23.6714 C   0  0  0  0  0  0  0  0  0  0  0  0
    3.7562    6.9625   23.8127 C   0  0  0  0  0  0  0  0  0  0  0  0
    3.2177    7.3350   22.5619 O   0  0  0  0  0  0  0  0  0  0  0  0
  2  1  1  6
  2  3  1  0
  3  4  1  0
  4  5  1  6
  5  6  1  0
  6  7  1  0
  7  8  1  0
  9  8  1  1
  9 10  1  0
 10 11  2  0
 10 12  1  0
 12 13  1  0
 13 14  2  0
 14 15  1  0
 15 16  2  0
 16 17  1  0
 17 18  2  0
 18 19  1  0
 19 20  2  0
 20 21  1  0
 21 22  2  0
 12 23  1  0
 23 24  1  0
 24 25  1  1
  9 26  1  0
 26 27  2  0
 27 28  1  0
 28 29  1  0
 28 30  2  0
 30 31  1  0
 31 32  2  0
 32 33  1  0
 33 34  2  0
  4 35  1  0
 35 36  1  0
 36 37  1  0
 37  2  1  0
 33  7  1  0
 24  9  1  0
 32 26  1  0
 22 13  1  0
 22 17  1  0
M  CHG  1   4   1
M  END
$$$$

     RDKit          3D

 36 41  0  0  0  0  0  0  0  0999 V2000
   -8.4313   -3.8365  -23.7015 C   0  0  0  0  0  0  0  0  0  0  0  0
   -8.5339   -2.8309  -22.5642 C   0  0  1  0  0  0  0  0  0  0  0  0
   -7.2202   -2.5705  -21.8187 C   0  0  0  0  0  0  0  0  0  0  0  0
   -7.4974   -1.3118  -21.1532 N   0  0  0  0  0  0  0  0  0  0  0  0
   -6.6574   -0.7948  -20.1260 C   0  0  0  0  0  0  0  0  0  0  0  0
   -6.8658   -1.1793  -18.8229 C   0  0  0  0  0  0  0  0  0  0  0  0
   -6.0848   -0.8134  -17.7794 N   0  0  0  0  0  0  0  0  0  0  0  0
   -5.0623   -0.0322  -18.0245 C   0  0  0  0  0  0  0  0  0  0  0  0
   -4.7377    0.4567  -19.3224 C   0  0  0  0  0  0  0  0  0  0  0  0
   -3.6466    1.3420  -19.5332 C   0  0  0  0  0  0  0  0  0  0  0  0
   -3.3220    1.7588  -20.7933 C   0  0  0  0  0  0  0  0  0  0  0  0
   -4.0658    1.2972  -21.8998 C   0  0  0  0  0  0  0  0  0  0  0  0
   -5.1477    0.4668  -21.7202 C   0  0  0  0  0  0  0  0  0  0  0  0
   -5.5334    0.0437  -20.4182 C   0  0  0  0  0  0  0  0  0  0  0  0
   -8.4737   -0.5816  -21.7865 C   0  0  0  0  0  0  0  0  0  0  0  0
   -8.7775    0.5604  -21.4960 O   0  0  0  0  0  0  0  0  0  0  0  0
   -9.0723   -1.4255  -22.9412 C   0  0  1  0  0  0  0  0  0  0  0  0
   -8.5002   -0.9016  -24.2874 C   0  0  0  0  0  0  0  0  0  0  0  0
   -9.0021    0.4223  -24.6194 N   0  0  0  0  0  0  0  0  0  0  0  0
   -8.1935    1.2868  -25.4441 C   0  0  0  0  0  0  0  0  0  0  0  0
   -7.4231    2.3875  -24.7211 C   0  0  0  0  0  0  0  0  0  0  0  0
   -6.7501    3.1736  -25.3767 O   0  0  0  0  0  0  0  0  0  0  0  0
   -7.4894    2.4028  -23.3769 N   0  0  0  0  0  0  0  0  0  0  0  0
   -6.6221    3.3020  -22.6450 C   0  0  0  0  0  0  0  0  0  0  0  0
   -7.0381    4.7477  -22.7449 C   0  0  0  0  0  0  0  0  0  0  0  0
   -8.3058    5.1817  -22.0953 C   0  0  0  0  0  0  0  0  0  0  0  0
   -6.9767    5.6294  -21.5359 C   0  0  0  0  0  0  0  0  0  0  0  0
  -10.2394    0.8750  -24.2583 C   0  0  0  0  0  0  0  0  0  0  0  0
  -10.6077    2.0224  -24.4850 O   0  0  0  0  0  0  0  0  0  0  0  0
  -11.1199   -0.1292  -23.5881 C   0  0  0  0  0  0  0  0  0  0  0  0
  -12.4906    0.1212  -23.5719 C   0  0  0  0  0  0  0  0  0  0  0  0
  -13.3686   -0.8165  -23.0666 C   0  0  0  0  0  0  0  0  0  0  0  0
  -12.8386   -2.0134  -22.5968 C   0  0  0  0  0  0  0  0  0  0  0  0
  -13.6813   -2.9310  -22.0885 F   0  0  0  0  0  0  0  0  0  0  0  0
  -11.4840   -2.2889  -22.6089 C   0  0  0  0  0  0  0  0  0  0  0  0
  -10.5838   -1.3064  -23.0453 C   0  0  0  0  0  0  0  0  0  0  0  0
  2  1  1  6
  2  3  1  0
  3  4  1  0
  4  5  1  0
  5  6  2  0
  6  7  1  0
  7  8  2  0
  8  9  1  0
  9 10  2  0
 10 11  1  0
 11 12  2  0
 12 13  1  0
 13 14  2  0
  4 15  1  0
 15 16  2  0
 15 17  1  0
 17 18  1  6
 18 19  1  0
 19 20  1  0
 20 21  1  0
 21 22  2  0
 21 23  1  0
 23 24  1  0
 24 25  1  0
 25 26  1  0
 26 27  1  0
 19 28  1  0
 28 29  2  0
 28 30  1  0
 30 31  2  0
 31 32  1  0
 32 33  2  0
 33 34  1  0
 33 35  1  0
 35 36  2  0
 17  2  1  0
 27 25  1  0
 36 30  1  0
 14  5  1  0
 36 17  1  0
 14  9  1  0
M  END
$$$$

     RDKit          3D

 26 30  0  0  0  0  0  0  0  0999 V2000
   -5.1987   -4.3748  -20.6464 O   0  0  0  0  0  0  0  0  0  0  0  0
   -5.7696   -3.6512  -21.5004 C   0  0  0  0  0  0  0  0  0  0  0  0
   -6.2475   -4.1088  -22.7613 N   0  0  0  0  0  0  0  0  0  0  0  0
   -7.2590   -3.1531  -23.2300 C   0  0  2  0  0  0  0  0  0  0  0  0
   -8.5285   -3.5235  -22.5137 C   0  0  0  0  0  0  0  0  0  0  0  0
   -9.7531   -2.9393  -23.1379 C   0  0  0  0  0  0  0  0  0  0  0  0
   -9.7384   -3.0267  -24.5444 O   0  0  0  0  0  0  0  0  0  0  0  0
   -8.6014   -3.0030  -25.3107 C   0  0  0  0  0  0  0  0  0  0  0  0
   -8.7032   -2.9179  -26.6862 C   0  0  0  0  0  0  0  0  0  0  0  0
   -7.5424   -2.8954  -27.4498 C   0  0  0  0  0  0  0  0  0  0  0  0
   -6.3732   -2.9576  -26.8156 N   0  0  0  0  0  0  0  0  0  0  0  0
   -6.2585   -3.0408  -25.4729 C   0  0  0  0  0  0  0  0  0  0  0  0
   -7.3739   -3.0663  -24.6751 C   0  0  0  0  0  0  0  0  0  0  0  0
   -6.7002   -1.9032  -22.6013 C   0  0  0  0  0  0  0  0  0  0  0  0
   -6.8215   -0.7743  -23.1116 O   0  0  0  0  0  0  0  0  0  0  0  0
   -6.0506   -2.2551  -21.3870 N   0  0  0  0  0  0  0  0  0  0  0  0
   -5.7801   -1.3499  -20.3326 C   0  0  0  0  0  0  0  0  0  0  0  0
   -6.4833   -1.4036  -19.1223 C   0  0  0  0  0  0  0  0  0  0  0  0
   -6.2760   -0.5846  -18.1023 N   0  0  0  0  0  0  0  0  0  0  0  0
   -5.3420    0.3707  -18.1948 C   0  0  0  0  0  0  0  0  0  0  0  0
   -4.5922    0.5091  -19.3470 C   0  0  0  0  0  0  0  0  0  0  0  0
   -3.6248    1.4830  -19.4702 C   0  0  0  0  0  0  0  0  0  0  0  0
   -2.8890    1.6120  -20.6129 C   0  0  0  0  0  0  0  0  0  0  0  0
   -3.0835    0.7776  -21.6849 C   0  0  0  0  0  0  0  0  0  0  0  0
   -4.0590   -0.2050  -21.5618 C   0  0  0  0  0  0  0  0  0  0  0  0
   -4.8198   -0.3619  -20.4188 C   0  0  0  0  0  0  0  0  0  0  0  0
  1  2  2  0
  2  3  1  0
  4  3  1  0
  4  5  1  1
  5  6  1  0
  6  7  1  0
  7  8  1  0
  8  9  2  0
  9 10  1  0
 10 11  2  0
 11 12  1  0
 12 13  2  0
  4 14  1  0
 14 15  2  0
 14 16  1  0
 16 17  1  0
 17 18  2  0
 18 19  1  0
 19 20  2  0
 20 21  1  0
 21 22  2  0
 22 23  1  0
 23 24  2  0
 24 25  1  0
 25 26  2  0
 16  2  1  0
 26 17  1  0
 13  4  1  0
 26 21  1  0
 13  8  1  0
M  END
>  <minimizedAffinity>  (47) 
-7.56286

>  <CNNscore>  (47) 
0.6859658957

>  <CNNaffinity>  (47) 
5.6039547920

>  <CNN_VS>  (47) 
3.8441219330

>  <CNNaffinity_variance>  (47) 
0.2837896943

$$$$

     RDKit          3D

 38 43  0  0  0  0  0  0  0  0999 V2000
    5.4210    2.7589   26.2490 C   0  0  0  0  0  0  0  0  0  0  0  0
    6.6571    3.5378   26.0157 N   0  0  0  0  0  0  0  0  0  0  0  0
    6.5497    4.4786   24.8671 C   0  0  0  0  0  0  0  0  0  0  0  0
    6.6237    3.7153   23.5415 C   0  0  0  0  0  0  0  0  0  0  0  0
    7.8182    2.8722   23.4663 N   0  0  0  0  0  0  0  0  0  0  0  0
    7.7670    1.4226   23.5940 C   0  0  0  0  0  0  0  0  0  0  0  0
    8.4872    0.7089   22.4091 C   0  0  2  0  0  0  0  0  0  0  0  0
    7.6684    0.9735   21.1247 C   0  0  0  0  0  0  0  0  0  0  0  0
    7.6474    1.9745   20.4435 O   0  0  0  0  0  0  0  0  0  0  0  0
    6.9127   -0.1478   20.8616 N   0  0  0  0  0  0  0  0  0  0  0  0
    5.8980   -0.1084   19.8790 C   0  0  0  0  0  0  0  0  0  0  0  0
    6.0579   -0.7798   18.6964 C   0  0  0  0  0  0  0  0  0  0  0  0
    5.2241   -0.6680   17.6348 N   0  0  0  0  0  0  0  0  0  0  0  0
    4.1698    0.1034   17.7717 C   0  0  0  0  0  0  0  0  0  0  0  0
    3.8339    0.7792   18.9794 C   0  0  0  0  0  0  0  0  0  0  0  0
    2.6565    1.5645   19.1046 C   0  0  0  0  0  0  0  0  0  0  0  0
    2.3234    2.1401   20.3004 C   0  0  0  0  0  0  0  0  0  0  0  0
    3.1655    1.9814   21.4241 C   0  0  0  0  0  0  0  0  0  0  0  0
    4.3284    1.2587   21.3187 C   0  0  0  0  0  0  0  0  0  0  0  0
    4.7033    0.6522   20.0844 C   0  0  0  0  0  0  0  0  0  0  0  0
    7.1373   -1.2456   21.7727 C   0  0  0  0  0  0  0  0  0  0  0  0
    8.4268   -0.8389   22.4962 C   0  0  2  0  0  0  0  0  0  0  0  0
    8.5610   -1.5068   23.8661 C   0  0  0  0  0  0  0  0  0  0  0  0
    9.9025   -1.6392   24.2756 O   0  0  0  0  0  0  0  0  0  0  0  0
   10.4163   -0.6277   25.1178 C   0  0  0  0  0  0  0  0  0  0  0  0
   11.8654   -0.9688   25.4192 C   0  0  0  0  0  0  0  0  0  0  0  0
   12.1931   -2.4148   25.8303 C   0  0  0  0  0  0  0  0  0  0  0  0
   13.0610   -2.5944   24.7034 O   0  0  0  0  0  0  0  0  0  0  0  0
   12.7709   -1.2812   24.2163 C   0  0  0  0  0  0  0  0  0  0  0  0
    9.8857    1.2791   22.3118 C   0  0  0  0  0  0  0  0  0  0  0  0
   11.0068    0.5264   21.9491 C   0  0  0  0  0  0  0  0  0  0  0  0
   12.2488    1.1393   21.8489 C   0  0  0  0  0  0  0  0  0  0  0  0
   13.6359    0.1560   21.4537 Cl  0  0  0  0  0  0  0  0  0  0  0  0
   12.4370    2.5060   22.0529 C   0  0  0  0  0  0  0  0  0  0  0  0
   11.3322    3.2451   22.4201 C   0  0  0  0  0  0  0  0  0  0  0  0
   10.0885    2.6372   22.5878 C   0  0  0  0  0  0  0  0  0  0  0  0
    8.9774    3.5021   23.0938 C   0  0  0  0  0  0  0  0  0  0  0  0
    9.1172    4.7212   23.1703 O   0  0  0  0  0  0  0  0  0  0  0  0
  1  2  1  0
  2  3  1  0
  3  4  1  0
  4  5  1  0
  5  6  1  0
  7  6  1  1
  7  8  1  0
  8  9  2  0
  8 10  1  0
 10 11  1  0
 11 12  2  0
 12 13  1  0
 13 14  2  0
 14 15  1  0
 15 16  2  0
 16 17  1  0
 17 18  2  0
 18 19  1  0
 19 20  2  0
 10 21  1  0
 21 22  1  0
 22 23  1  1
 23 24  1  0
 24 25  1  0
 25 26  1  0
 26 27  1  0
 27 28  1  0
 28 29  1  0
  7 30  1  0
 30 31  2  0
 31 32  1  0
 32 33  1  0
 32 34  2  0
 34 35  1  0
 35 36  2  0
 36 37  1  0
 37 38  2  0
 37  5  1  0
 22  7  1  0
 29 26  1  0
 36 30  1  0
 20 11  1  0
 20 15  1  0
M  CHG  1   2   1
M  END
$$$$

     RDKit          3D

 40 45  0  0  0  0  0  0  0  0999 V2000
   -7.0184    3.6315  -22.4824 C   0  0  0  0  0  0  0  0  0  0  0  0
   -7.7824    2.6811  -23.2631 N   0  0  0  0  0  0  0  0  0  0  0  0
   -7.4951    2.5192  -24.5715 C   0  0  0  0  0  0  0  0  0  0  0  0
   -6.7272    3.2471  -25.1874 O   0  0  0  0  0  0  0  0  0  0  0  0
   -8.1622    1.3626  -25.3220 C   0  0  0  0  0  0  0  0  0  0  0  0
   -8.9839    0.4626  -24.5554 N   0  0  0  0  0  0  0  0  0  0  0  0
   -8.4966   -0.8803  -24.2972 C   0  0  0  0  0  0  0  0  0  0  0  0
   -9.0732   -1.4386  -22.9723 C   0  0  2  0  0  0  0  0  0  0  0  0
   -8.4816   -0.5987  -21.8051 C   0  0  0  0  0  0  0  0  0  0  0  0
   -8.7789    0.5496  -21.5290 O   0  0  0  0  0  0  0  0  0  0  0  0
   -7.5200   -1.3348  -21.1540 N   0  0  0  0  0  0  0  0  0  0  0  0
   -6.6685   -0.8068  -20.1344 C   0  0  0  0  0  0  0  0  0  0  0  0
   -6.8935   -1.1573  -18.8249 C   0  0  0  0  0  0  0  0  0  0  0  0
   -6.1238   -0.7720  -17.7752 N   0  0  0  0  0  0  0  0  0  0  0  0
   -5.0990    0.0043  -18.0239 C   0  0  0  0  0  0  0  0  0  0  0  0
   -4.7537    0.4642  -19.3260 C   0  0  0  0  0  0  0  0  0  0  0  0
   -3.6690    1.3580  -19.5332 C   0  0  0  0  0  0  0  0  0  0  0  0
   -3.3334    1.7564  -20.7947 C   0  0  0  0  0  0  0  0  0  0  0  0
   -4.0623    1.2826  -21.9076 C   0  0  0  0  0  0  0  0  0  0  0  0
   -5.1435    0.4524  -21.7305 C   0  0  0  0  0  0  0  0  0  0  0  0
   -5.5383    0.0340  -20.4275 C   0  0  0  0  0  0  0  0  0  0  0  0
   -7.2405   -2.5893  -21.8285 C   0  0  0  0  0  0  0  0  0  0  0  0
   -8.5324   -2.8480  -22.6127 C   0  0  2  0  0  0  0  0  0  0  0  0
   -8.3159   -3.8422  -23.7541 C   0  0  0  0  0  0  0  0  0  0  0  0
   -9.5309   -4.1351  -24.4677 N   0  0  0  0  0  0  0  0  0  0  0  0
   -9.5579   -4.9093  -25.6083 C   0  0  0  0  0  0  0  0  0  0  0  0
   -8.4025   -5.5343  -26.1056 C   0  0  0  0  0  0  0  0  0  0  0  0
   -8.4649   -6.3028  -27.2598 C   0  0  0  0  0  0  0  0  0  0  0  0
   -9.6604   -6.4745  -27.9450 C   0  0  0  0  0  0  0  0  0  0  0  0
  -10.8057   -5.8598  -27.4493 C   0  0  0  0  0  0  0  0  0  0  0  0
  -10.7679   -5.0884  -26.2993 C   0  0  0  0  0  0  0  0  0  0  0  0
  -10.5821   -1.3280  -23.0694 C   0  0  0  0  0  0  0  0  0  0  0  0
  -11.4750   -2.2743  -22.5531 C   0  0  0  0  0  0  0  0  0  0  0  0
  -12.8300   -1.9916  -22.4990 C   0  0  0  0  0  0  0  0  0  0  0  0
  -13.8797   -3.1209  -21.6886 Cl  0  0  0  0  0  0  0  0  0  0  0  0
  -13.3646   -0.8148  -23.0217 C   0  0  0  0  0  0  0  0  0  0  0  0
  -12.4988    0.0928  -23.5938 C   0  0  0  0  0  0  0  0  0  0  0  0
  -11.1311   -0.1662  -23.6297 C   0  0  0  0  0  0  0  0  0  0  0  0
  -10.2552    0.8662  -24.2576 C   0  0  0  0  0  0  0  0  0  0  0  0
  -10.6468    2.0050  -24.4760 O   0  0  0  0  0  0  0  0  0  0  0  0
  1  2  1  0
  2  3  1  0
  3  4  2  0
  3  5  1  0
  5  6  1  0
  6  7  1  0
  8  7  1  6
  8  9  1  0
  9 10  2  0
  9 11  1  0
 11 12  1  0
 12 13  2  0
 13 14  1  0
 14 15  2  0
 15 16  1  0
 16 17  2  0
 17 18  1  0
 18 19  2  0
 19 20  1  0
 20 21  2  0
 11 22  1  0
 22 23  1  0
 23 24  1  6
 24 25  1  0
 25 26  1  0
 26 27  2  0
 27 28  1  0
 28 29  2  0
 29 30  1  0
 30 31  2  0
  8 32  1  0
 32 33  2  0
 33 34  1  0
 34 35  1  0
 34 36  2  0
 36 37  1  0
 37 38  2  0
 38 39  1  0
 39 40  2  0
 39  6  1  0
 23  8  1  0
 31 26  1  0
 38 32  1  0
 21 12  1  0
 21 16  1  0
M  END
$$$$

     RDKit          3D

 36 41  0  0  0  0  0  0  0  0999 V2000
   -6.0774    2.0029  -25.0487 O   0  0  0  0  0  0  0  0  0  0  0  0
   -7.2500    2.0013  -24.7033 C   0  0  0  0  0  0  0  0  0  0  0  0
   -8.3106    1.1255  -25.3998 C   0  0  0  0  0  0  0  0  0  0  0  0
   -9.0914    0.2916  -24.4407 N   0  0  1  0  0  0  0  0  0  0  0  0
  -10.5457    0.2528  -24.7427 C   0  0  0  0  0  0  0  0  0  0  0  0
  -11.3216   -0.6326  -23.8081 C   0  0  0  0  0  0  0  0  0  0  0  0
  -12.7004   -0.4496  -23.7545 C   0  0  0  0  0  0  0  0  0  0  0  0
  -13.5157   -1.3945  -23.1526 C   0  0  0  0  0  0  0  0  0  0  0  0
  -12.9142   -2.5052  -22.5689 C   0  0  0  0  0  0  0  0  0  0  0  0
  -13.9074   -3.7025  -21.7824 Cl  0  0  0  0  0  0  0  0  0  0  0  0
  -11.5378   -2.6615  -22.5483 C   0  0  0  0  0  0  0  0  0  0  0  0
  -10.7096   -1.6885  -23.1160 C   0  0  0  0  0  0  0  0  0  0  0  0
   -9.1852   -1.7225  -23.0251 C   0  0  2  0  0  0  0  0  0  0  0  0
   -8.5320   -3.0773  -22.6800 C   0  0  0  0  0  0  0  0  0  0  0  0
   -7.2468   -2.7196  -21.9167 C   0  0  0  0  0  0  0  0  0  0  0  0
   -7.6008   -1.4638  -21.2769 N   0  0  0  0  0  0  0  0  0  0  0  0
   -6.7848   -0.9009  -20.2554 C   0  0  0  0  0  0  0  0  0  0  0  0
   -7.0277   -1.2711  -18.9576 C   0  0  0  0  0  0  0  0  0  0  0  0
   -6.2523   -0.9389  -17.8995 N   0  0  0  0  0  0  0  0  0  0  0  0
   -5.1972   -0.2029  -18.1346 C   0  0  0  0  0  0  0  0  0  0  0  0
   -4.8422    0.2916  -19.4219 C   0  0  0  0  0  0  0  0  0  0  0  0
   -3.7137    1.1339  -19.6075 C   0  0  0  0  0  0  0  0  0  0  0  0
   -3.3550    1.5540  -20.8584 C   0  0  0  0  0  0  0  0  0  0  0  0
   -4.1074    1.1415  -21.9846 C   0  0  0  0  0  0  0  0  0  0  0  0
   -5.2202    0.3517  -21.8276 C   0  0  0  0  0  0  0  0  0  0  0  0
   -5.6366   -0.0885  -20.5364 C   0  0  0  0  0  0  0  0  0  0  0  0
   -8.6123   -0.8017  -21.9174 C   0  0  0  0  0  0  0  0  0  0  0  0
   -8.9042    0.3704  -21.7495 O   0  0  0  0  0  0  0  0  0  0  0  0
   -8.6047   -1.1342  -24.3304 C   0  0  0  0  0  0  0  0  0  0  0  0
   -7.7507    2.7769  -23.6977 N   0  0  0  0  0  0  0  0  0  0  0  0
   -6.9225    3.5421  -22.7800 C   0  0  0  0  0  0  0  0  0  0  0  0
   -6.8288    5.0248  -23.1344 C   0  0  1  0  0  0  0  0  0  0  0  0
   -5.9598    5.8578  -22.1593 C   0  0  0  0  0  0  0  0  0  0  0  0
   -5.0830    6.2992  -23.3446 C   0  0  1  0  0  0  0  0  0  0  0  0
   -3.7399    6.0019  -23.1883 F   0  0  0  0  0  0  0  0  0  0  0  0
   -5.8304    5.3355  -24.2853 C   0  0  0  0  0  0  0  0  0  0  0  0
  1  2  2  0
  2  3  1  0
  4  3  1  6
  4  5  1  0
  5  6  1  0
  6  7  2  0
  7  8  1  0
  8  9  2  0
  9 10  1  0
  9 11  1  0
 11 12  2  0
 12 13  1  0
 13 14  1  1
 14 15  1  0
 15 16  1  0
 16 17  1  0
 17 18  2  0
 18 19  1  0
 19 20  2  0
 20 21  1  0
 21 22  2  0
 22 23  1  0
 23 24  2  0
 24 25  1  0
 25 26  2  0
 16 27  1  0
 27 28  2  0
 13 29  1  0
  2 30  1  0
 30 31  1  0
 32 31  1  1
 32 33  1  0
 33 34  1  0
 34 35  1  1
 34 36  1  0
 29  4  1  0
 36 32  1  0
 12  6  1  0
 27 13  1  0
 26 17  1  0
 26 21  1  0
M  CHG  1   4   1
M  END
$$$$

     RDKit          3D

 41 46  0  0  0  0  0  0  0  0999 V2000
   -8.4234    2.4900  -26.5812 O   0  0  0  0  0  0  0  0  0  0  0  0
   -7.7565    2.0417  -25.6640 C   0  0  0  0  0  0  0  0  0  0  0  0
   -7.4833    0.5472  -25.5005 C   0  0  0  0  0  0  0  0  0  0  0  0
   -8.3844   -0.0635  -24.4900 N   0  0  1  0  0  0  0  0  0  0  0  0
   -9.8264    0.0967  -24.9043 C   0  0  0  0  0  0  0  0  0  0  0  0
  -10.7791   -0.6440  -24.0014 C   0  0  0  0  0  0  0  0  0  0  0  0
  -12.1348   -0.3274  -24.0515 C   0  0  0  0  0  0  0  0  0  0  0  0
  -13.0732   -1.0853  -23.3676 C   0  0  0  0  0  0  0  0  0  0  0  0
  -12.6340   -2.1909  -22.6474 C   0  0  0  0  0  0  0  0  0  0  0  0
  -13.8052   -3.1832  -21.8227 Cl  0  0  0  0  0  0  0  0  0  0  0  0
  -11.2831   -2.5074  -22.5664 C   0  0  0  0  0  0  0  0  0  0  0  0
  -10.3382   -1.7002  -23.2008 C   0  0  0  0  0  0  0  0  0  0  0  0
   -8.8524   -1.9338  -23.0153 C   0  0  2  0  0  0  0  0  0  0  0  0
   -8.2296   -1.0622  -21.9188 C   0  0  0  0  0  0  0  0  0  0  0  0
   -8.5190    0.1132  -21.7739 O   0  0  0  0  0  0  0  0  0  0  0  0
   -7.1911   -1.6592  -21.2451 N   0  0  0  0  0  0  0  0  0  0  0  0
   -6.4831   -1.0309  -20.1793 C   0  0  0  0  0  0  0  0  0  0  0  0
   -6.8885   -1.2223  -18.8842 C   0  0  0  0  0  0  0  0  0  0  0  0
   -6.2340   -0.7576  -17.7928 N   0  0  0  0  0  0  0  0  0  0  0  0
   -5.1658   -0.0272  -17.9925 C   0  0  0  0  0  0  0  0  0  0  0  0
   -4.6692    0.3102  -19.2827 C   0  0  0  0  0  0  0  0  0  0  0  0
   -3.5604    1.1794  -19.4551 C   0  0  0  0  0  0  0  0  0  0  0  0
   -3.0840    1.4558  -20.7083 C   0  0  0  0  0  0  0  0  0  0  0  0
   -3.6911    0.8698  -21.8435 C   0  0  0  0  0  0  0  0  0  0  0  0
   -4.7847    0.0499  -21.7024 C   0  0  0  0  0  0  0  0  0  0  0  0
   -5.3205   -0.2297  -20.4157 C   0  0  0  0  0  0  0  0  0  0  0  0
   -8.0947   -1.5196  -24.2767 C   0  0  0  0  0  0  0  0  0  0  0  0
   -7.1981    2.8218  -24.6862 N   0  0  0  0  0  0  0  0  0  0  0  0
   -7.2919    4.2293  -24.6356 C   0  0  0  0  0  0  0  0  0  0  0  0
   -8.4736    4.8903  -24.9647 C   0  0  0  0  0  0  0  0  0  0  0  0
   -8.5484    6.2688  -24.8887 C   0  0  0  0  0  0  0  0  0  0  0  0
   -7.4337    7.0189  -24.5081 C   0  0  0  0  0  0  0  0  0  0  0  0
   -7.5163    8.4277  -24.4733 N   0  0  0  0  0  0  0  0  0  0  0  0
   -6.6147    9.1569  -23.5976 C   0  0  0  0  0  0  0  0  0  0  0  0
   -7.2195   10.5062  -23.2423 C   0  0  0  0  0  0  0  0  0  0  0  0
   -7.6087   11.2164  -24.3947 O   0  0  0  0  0  0  0  0  0  0  0  0
   -8.6128   10.5439  -25.1040 C   0  0  0  0  0  0  0  0  0  0  0  0
   -8.3068    9.0856  -25.3886 C   0  0  0  0  0  0  0  0  0  0  0  0
   -8.8175    8.5489  -26.3559 O   0  0  0  0  0  0  0  0  0  0  0  0
   -6.2659    6.3509  -24.1254 C   0  0  0  0  0  0  0  0  0  0  0  0
   -6.1971    4.9679  -24.1932 C   0  0  0  0  0  0  0  0  0  0  0  0
  1  2  2  0
  2  3  1  0
  4  3  1  6
  4  5  1  0
  5  6  1  0
  6  7  2  0
  7  8  1  0
  8  9  2  0
  9 10  1  0
  9 11  1  0
 11 12  2  0
 12 13  1  0
 13 14  1  1
 14 15  2  0
 14 16  1  0
 16 17  1  0
 17 18  2  0
 18 19  1  0
 19 20  2  0
 20 21  1  0
 21 22  2  0
 22 23  1  0
 23 24  2  0
 24 25  1  0
 25 26  2  0
 13 27  1  0
  2 28  1  0
 28 29  1  0
 29 30  2  0
 30 31  1  0
 31 32  2  0
 32 33  1  0
 33 34  1  0
 34 35  1  0
 35 36  1  0
 36 37  1  0
 37 38  1  0
 38 39  2  0
 32 40  1  0
 40 41  2  0
 27  4  1  0
 41 29  1  0
 12  6  1  0
 26 17  1  0
 38 33  1  0
 26 21  1  0
M  CHG  1   4   1
M  END
$$$$

     RDKit          3D

 34 39  0  0  0  0  0  0  0  0999 V2000
   -8.4251   -3.8506  -23.6914 C   0  0  0  0  0  0  0  0  0  0  0  0
   -8.5216   -2.8478  -22.5534 C   0  0  1  0  0  0  0  0  0  0  0  0
   -7.2044   -2.5834  -21.8144 C   0  0  0  0  0  0  0  0  0  0  0  0
   -7.4920   -1.3380  -21.1321 N   0  0  0  0  0  0  0  0  0  0  0  0
   -6.6424   -0.8200  -20.1173 C   0  0  0  0  0  0  0  0  0  0  0  0
   -6.8577   -1.1885  -18.8104 C   0  0  0  0  0  0  0  0  0  0  0  0
   -6.0696   -0.8282  -17.7692 N   0  0  0  0  0  0  0  0  0  0  0  0
   -5.0400   -0.0602  -18.0259 C   0  0  0  0  0  0  0  0  0  0  0  0
   -4.7176    0.4239  -19.3247 C   0  0  0  0  0  0  0  0  0  0  0  0
   -3.6464    1.3341  -19.5272 C   0  0  0  0  0  0  0  0  0  0  0  0
   -3.3304    1.7539  -20.7877 C   0  0  0  0  0  0  0  0  0  0  0  0
   -4.0566    1.2773  -21.9019 C   0  0  0  0  0  0  0  0  0  0  0  0
   -5.1407    0.4481  -21.7251 C   0  0  0  0  0  0  0  0  0  0  0  0
   -5.5118    0.0111  -20.4213 C   0  0  0  0  0  0  0  0  0  0  0  0
   -8.4800   -0.5960  -21.7582 C   0  0  0  0  0  0  0  0  0  0  0  0
   -8.8073    0.5185  -21.4372 O   0  0  0  0  0  0  0  0  0  0  0  0
   -9.0576   -1.4420  -22.9305 C   0  0  1  0  0  0  0  0  0  0  0  0
   -8.4797   -0.9070  -24.2730 C   0  0  0  0  0  0  0  0  0  0  0  0
   -8.9457    0.4387  -24.5655 N   0  0  0  0  0  0  0  0  0  0  0  0
   -8.1346    1.3492  -25.3543 C   0  0  0  0  0  0  0  0  0  0  0  0
   -7.6403    2.5253  -24.5541 C   0  0  0  0  0  0  0  0  0  0  0  0
   -7.4896    3.8783  -24.8960 C   0  0  0  0  0  0  0  0  0  0  0  0
   -6.9623    4.5339  -23.8630 N   0  0  0  0  0  0  0  0  0  0  0  0
   -6.8086    3.5851  -22.9634 N   0  0  0  0  0  0  0  0  0  0  0  0
   -7.1843    2.3647  -23.3102 N   0  0  0  0  0  0  0  0  0  0  0  0
  -10.1878    0.8853  -24.2121 C   0  0  0  0  0  0  0  0  0  0  0  0
  -10.5410    2.0448  -24.3899 O   0  0  0  0  0  0  0  0  0  0  0  0
  -11.0930   -0.1411  -23.6033 C   0  0  0  0  0  0  0  0  0  0  0  0
  -12.4614    0.1284  -23.5893 C   0  0  0  0  0  0  0  0  0  0  0  0
  -13.3503   -0.8001  -23.0898 C   0  0  0  0  0  0  0  0  0  0  0  0
  -12.8289   -2.0017  -22.6257 C   0  0  0  0  0  0  0  0  0  0  0  0
  -13.6900   -2.9109  -22.1362 F   0  0  0  0  0  0  0  0  0  0  0  0
  -11.4788   -2.2991  -22.6252 C   0  0  0  0  0  0  0  0  0  0  0  0
  -10.5692   -1.3226  -23.0550 C   0  0  0  0  0  0  0  0  0  0  0  0
  2  1  1  6
  2  3  1  0
  3  4  1  0
  4  5  1  0
  5  6  2  0
  6  7  1  0
  7  8  2  0
  8  9  1  0
  9 10  2  0
 10 11  1  0
 11 12  2  0
 12 13  1  0
 13 14  2  0
  4 15  1  0
 15 16  2  0
 15 17  1  0
 17 18  1  6
 18 19  1  0
 19 20  1  0
 20 21  1  0
 21 22  1  0
 22 23  2  0
 23 24  1  0
 24 25  1  0
 19 26  1  0
 26 27  2  0
 26 28  1  0
 28 29  2  0
 29 30  1  0
 30 31  2  0
 31 32  1  0
 31 33  1  0
 33 34  2  0
 17  2  1  0
 25 21  2  0
 34 28  1  0
 14  5  1  0
 34 17  1  0
 14  9  1  0
M  END
$$$$

     RDKit          3D

 32 36  0  0  0  0  0  0  0  0999 V2000
   -6.9835    3.5643  -22.4462 C   0  0  0  0  0  0  0  0  0  0  0  0
   -7.7984    2.5718  -23.1639 N   0  0  0  0  0  0  0  0  0  0  0  0
   -7.5071    2.5214  -24.6125 C   0  0  0  0  0  0  0  0  0  0  0  0
   -8.1303    1.3120  -25.3540 C   0  0  0  0  0  0  0  0  0  0  0  0
   -8.9690    0.4446  -24.5559 N   0  0  0  0  0  0  0  0  0  0  0  0
   -8.5045   -0.9015  -24.2747 C   0  0  0  0  0  0  0  0  0  0  0  0
   -9.0596   -1.4127  -22.9273 C   0  0  2  0  0  0  0  0  0  0  0  0
   -8.4007   -0.5559  -21.8158 C   0  0  0  0  0  0  0  0  0  0  0  0
   -8.5612    0.6341  -21.6264 O   0  0  0  0  0  0  0  0  0  0  0  0
   -7.5040   -1.3193  -21.1238 N   0  0  0  0  0  0  0  0  0  0  0  0
   -6.6564   -0.7927  -20.1104 C   0  0  0  0  0  0  0  0  0  0  0  0
   -6.8901   -1.1364  -18.8031 C   0  0  0  0  0  0  0  0  0  0  0  0
   -6.1347   -0.7275  -17.7564 N   0  0  0  0  0  0  0  0  0  0  0  0
   -5.1120    0.0532  -18.0047 C   0  0  0  0  0  0  0  0  0  0  0  0
   -4.7679    0.5027  -19.3129 C   0  0  0  0  0  0  0  0  0  0  0  0
   -3.6742    1.3812  -19.5349 C   0  0  0  0  0  0  0  0  0  0  0  0
   -3.3332    1.7711  -20.7988 C   0  0  0  0  0  0  0  0  0  0  0  0
   -4.0687    1.2923  -21.9042 C   0  0  0  0  0  0  0  0  0  0  0  0
   -5.1438    0.4554  -21.7186 C   0  0  0  0  0  0  0  0  0  0  0  0
   -5.5412    0.0516  -20.4108 C   0  0  0  0  0  0  0  0  0  0  0  0
   -7.2298   -2.5717  -21.7936 C   0  0  0  0  0  0  0  0  0  0  0  0
   -8.5357   -2.8259  -22.5539 C   0  0  2  0  0  0  0  0  0  0  0  0
   -8.4232   -3.8129  -23.7094 C   0  0  0  0  0  0  0  0  0  0  0  0
  -10.5708   -1.2702  -23.0140 C   0  0  0  0  0  0  0  0  0  0  0  0
  -11.4636   -2.2217  -22.5064 C   0  0  0  0  0  0  0  0  0  0  0  0
  -12.8127   -1.9365  -22.4658 C   0  0  0  0  0  0  0  0  0  0  0  0
  -13.6370   -2.8071  -21.8538 F   0  0  0  0  0  0  0  0  0  0  0  0
  -13.3530   -0.7763  -23.0050 C   0  0  0  0  0  0  0  0  0  0  0  0
  -12.4880    0.1303  -23.5857 C   0  0  0  0  0  0  0  0  0  0  0  0
  -11.1157   -0.1169  -23.6067 C   0  0  0  0  0  0  0  0  0  0  0  0
  -10.2157    0.8930  -24.2427 C   0  0  0  0  0  0  0  0  0  0  0  0
  -10.5526    2.0632  -24.4323 O   0  0  0  0  0  0  0  0  0  0  0  0
  1  2  1  0
  2  3  1  0
  3  4  1  0
  4  5  1  0
  5  6  1  0
  7  6  1  6
  7  8  1  0
  8  9  2  0
  8 10  1  0
 10 11  1  0
 11 12  2  0
 12 13  1  0
 13 14  2  0
 14 15  1  0
 15 16  2  0
 16 17  1  0
 17 18  2  0
 18 19  1  0
 19 20  2  0
 10 21  1  0
 21 22  1  0
 22 23  1  6
  7 24  1  0
 24 25  2  0
 25 26  1  0
 26 27  1  0
 26 28  2  0
 28 29  1  0
 29 30  2  0
 30 31  1  0
 31 32  2  0
 31  5  1  0
 22  7  1  0
 30 24  1  0
 20 11  1  0
 20 15  1  0
M  CHG  1   2   1
M  END
$$$$

     RDKit          3D

 40 45  0  0  0  0  0  0  0  0999 V2000
    4.0179    2.4428   25.1887 C   0  0  0  0  0  0  0  0  0  0  0  0
    5.3233    3.0652   25.3064 N   0  0  0  0  0  0  0  0  0  0  0  0
    5.9020    3.5526   24.1711 C   0  0  0  0  0  0  0  0  0  0  0  0
    5.2752    3.7011   23.1389 O   0  0  0  0  0  0  0  0  0  0  0  0
    7.3973    3.8173   24.2608 C   0  0  0  0  0  0  0  0  0  0  0  0
    8.1612    2.8271   23.5150 N   0  0  0  0  0  0  0  0  0  0  0  0
    7.7568    1.4265   23.5965 C   0  0  0  0  0  0  0  0  0  0  0  0
    8.4303    0.5395   22.4977 C   0  0  2  0  0  0  0  0  0  0  0  0
    7.7222    0.8314   21.1524 C   0  0  0  0  0  0  0  0  0  0  0  0
    7.8510    1.8056   20.4500 O   0  0  0  0  0  0  0  0  0  0  0  0
    6.8718   -0.2202   20.8614 N   0  0  0  0  0  0  0  0  0  0  0  0
    5.9086   -0.0892   19.8299 C   0  0  0  0  0  0  0  0  0  0  0  0
    6.1283   -0.6835   18.6151 C   0  0  0  0  0  0  0  0  0  0  0  0
    5.3148   -0.5460   17.5385 N   0  0  0  0  0  0  0  0  0  0  0  0
    4.2414    0.1962   17.6826 C   0  0  0  0  0  0  0  0  0  0  0  0
    3.8764    0.8438   18.8996 C   0  0  0  0  0  0  0  0  0  0  0  0
    2.7100    1.6472   19.0144 C   0  0  0  0  0  0  0  0  0  0  0  0
    2.3726    2.2221   20.2092 C   0  0  0  0  0  0  0  0  0  0  0  0
    3.1963    2.0416   21.3433 C   0  0  0  0  0  0  0  0  0  0  0  0
    4.3425    1.2933   21.2526 C   0  0  0  0  0  0  0  0  0  0  0  0
    4.7194    0.6829   20.0221 C   0  0  0  0  0  0  0  0  0  0  0  0
    6.8312   -1.2427   21.8896 C   0  0  0  0  0  0  0  0  0  0  0  0
    8.1305   -0.9744   22.6605 C   0  0  2  0  0  0  0  0  0  0  0  0
    8.1218   -1.5320   24.0883 C   0  0  0  0  0  0  0  0  0  0  0  0
    9.2629   -1.1784   24.9147 N   0  0  0  0  0  0  0  0  0  0  0  0
   10.5216   -1.7325   24.6665 C   0  0  0  0  0  0  0  0  0  0  0  0
   10.9438   -2.9244   24.0143 C   0  0  0  0  0  0  0  0  0  0  0  0
   12.2719   -3.0110   23.9906 N   0  0  0  0  0  0  0  0  0  0  0  0
   12.7193   -1.9220   24.6226 N   0  0  0  0  0  0  0  0  0  0  0  0
   14.1349   -1.6120   24.6717 C   0  0  0  0  0  0  0  0  0  0  0  0
   11.7027   -1.1284   25.0451 C   0  0  0  0  0  0  0  0  0  0  0  0
    9.9154    0.8579   22.4080 C   0  0  0  0  0  0  0  0  0  0  0  0
   10.8573   -0.0509   21.8994 C   0  0  0  0  0  0  0  0  0  0  0  0
   12.1975    0.2910   21.8532 C   0  0  0  0  0  0  0  0  0  0  0  0
   13.3648   -0.8981   21.3524 Cl  0  0  0  0  0  0  0  0  0  0  0  0
   12.6418    1.5585   22.2163 C   0  0  0  0  0  0  0  0  0  0  0  0
   11.7113    2.4728   22.6550 C   0  0  0  0  0  0  0  0  0  0  0  0
   10.3656    2.1364   22.7442 C   0  0  0  0  0  0  0  0  0  0  0  0
    9.4232    3.2195   23.1581 C   0  0  0  0  0  0  0  0  0  0  0  0
    9.7744    4.3912   23.1853 O   0  0  0  0  0  0  0  0  0  0  0  0
  1  2  1  0
  2  3  1  0
  3  4  2  0
  3  5  1  0
  5  6  1  0
  6  7  1  0
  8  7  1  1
  8  9  1  0
  9 10  2  0
  9 11  1  0
 11 12  1  0
 12 13  2  0
 13 14  1  0
 14 15  2  0
 15 16  1  0
 16 17  2  0
 17 18  1  0
 18 19  2  0
 19 20  1  0
 20 21  2  0
 11 22  1  0
 22 23  1  0
 23 24  1  1
 24 25  1  0
 25 26  1  0
 26 27  1  0
 27 28  2  0
 28 29  1  0
 29 30  1  0
 29 31  1  0
  8 32  1  0
 32 33  2  0
 33 34  1  0
 34 35  1  0
 34 36  2  0
 36 37  1  0
 37 38  2  0
 38 39  1  0
 39 40  2  0
 39  6  1  0
 23  8  1  0
 31 26  2  0
 38 32  1  0
 21 12  1  0
 21 16  1  0
M  END
$$$$

     RDKit          3D

 27 31  0  0  0  0  0  0  0  0999 V2000
    7.5202    1.9619   20.5120 O   0  0  0  0  0  0  0  0  0  0  0  0
    7.6253    0.9127   21.1117 C   0  0  0  0  0  0  0  0  0  0  0  0
    8.4914    0.5540   22.0877 N   0  0  0  0  0  0  0  0  0  0  0  0
    8.4200   -0.8409   22.4552 C   0  0  2  0  0  0  0  0  0  0  0  0
    8.6624   -1.0545   23.9561 C   0  0  0  0  0  0  0  0  0  0  0  0
   10.1618   -1.0962   23.6068 C   0  0  1  0  0  0  0  0  0  0  0  0
   11.2022   -1.7808   24.4350 C   0  0  0  0  0  0  0  0  0  0  0  0
   10.9584   -2.2585   25.7224 C   0  0  0  0  0  0  0  0  0  0  0  0
   11.9936   -2.7349   26.5141 C   0  0  0  0  0  0  0  0  0  0  0  0
   13.2965   -2.7450   26.0289 C   0  0  0  0  0  0  0  0  0  0  0  0
   13.5656   -2.2848   24.7467 C   0  0  0  0  0  0  0  0  0  0  0  0
   12.5228   -1.8050   23.9694 C   0  0  0  0  0  0  0  0  0  0  0  0
   12.9250   -1.1774   22.3854 Cl  0  0  0  0  0  0  0  0  0  0  0  0
    9.7490   -1.5757   22.2021 C   0  0  0  0  0  0  0  0  0  0  0  0
    7.1823   -1.2983   21.7083 C   0  0  0  0  0  0  0  0  0  0  0  0
    6.6052   -2.3551   21.7449 O   0  0  0  0  0  0  0  0  0  0  0  0
    6.8264   -0.2131   20.9097 N   0  0  0  0  0  0  0  0  0  0  0  0
    5.8269   -0.1872   19.9229 C   0  0  0  0  0  0  0  0  0  0  0  0
    6.0321   -0.8277   18.7293 C   0  0  0  0  0  0  0  0  0  0  0  0
    5.2220   -0.6948   17.6552 N   0  0  0  0  0  0  0  0  0  0  0  0
    4.1642    0.0708   17.7998 C   0  0  0  0  0  0  0  0  0  0  0  0
    3.8085    0.7320   19.0115 C   0  0  0  0  0  0  0  0  0  0  0  0
    2.6140    1.4837   19.1445 C   0  0  0  0  0  0  0  0  0  0  0  0
    2.3009    2.0950   20.3268 C   0  0  0  0  0  0  0  0  0  0  0  0
    3.1761    2.0081   21.4280 C   0  0  0  0  0  0  0  0  0  0  0  0
    4.3406    1.2904   21.3298 C   0  0  0  0  0  0  0  0  0  0  0  0
    4.6743    0.6236   20.1129 C   0  0  0  0  0  0  0  0  0  0  0  0
  1  2  2  0
  2  3  1  0
  4  3  1  0
  4  5  1  1
  5  6  1  0
  6  7  1  1
  7  8  2  0
  8  9  1  0
  9 10  2  0
 10 11  1  0
 11 12  2  0
 12 13  1  0
  6 14  1  0
  4 15  1  0
 15 16  2  0
 15 17  1  0
 17 18  1  0
 18 19  2  0
 19 20  1  0
 20 21  2  0
 21 22  1  0
 22 23  2  0
 23 24  1  0
 24 25  2  0
 25 26  1  0
 26 27  2  0
 17  2  1  0
 27 18  1  0
 14  4  1  0
 27 22  1  0
 12  7  1  0
M  END
$$$$

     RDKit          3D

 38 42  0  0  0  0  0  0  0  0999 V2000
   -7.0026    3.6144  -22.4296 C   0  0  0  0  0  0  0  0  0  0  0  0
   -7.6271    2.6028  -23.2493 N   0  0  0  0  0  0  0  0  0  0  0  0
   -7.4258    2.5951  -24.5779 C   0  0  0  0  0  0  0  0  0  0  0  0
   -6.6848    3.3763  -25.1639 O   0  0  0  0  0  0  0  0  0  0  0  0
   -8.1805    1.5304  -25.3812 C   0  0  0  0  0  0  0  0  0  0  0  0
   -8.9966    0.6192  -24.6126 N   0  0  0  0  0  0  0  0  0  0  0  0
   -8.4584   -0.6962  -24.3287 C   0  0  0  0  0  0  0  0  0  0  0  0
   -8.9922   -1.2821  -22.9996 C   0  0  2  0  0  0  0  0  0  0  0  0
   -8.4388   -0.4775  -21.8002 C   0  0  0  0  0  0  0  0  0  0  0  0
   -8.7451    0.6592  -21.5030 O   0  0  0  0  0  0  0  0  0  0  0  0
   -7.5175   -1.2359  -21.1162 N   0  0  0  0  0  0  0  0  0  0  0  0
   -6.6566   -0.7422  -20.0993 C   0  0  0  0  0  0  0  0  0  0  0  0
   -6.8429   -1.1602  -18.8067 C   0  0  0  0  0  0  0  0  0  0  0  0
   -6.0456   -0.8204  -17.7670 N   0  0  0  0  0  0  0  0  0  0  0  0
   -5.0228   -0.0391  -18.0132 C   0  0  0  0  0  0  0  0  0  0  0  0
   -4.7083    0.4671  -19.3078 C   0  0  0  0  0  0  0  0  0  0  0  0
   -3.6062    1.3363  -19.5268 C   0  0  0  0  0  0  0  0  0  0  0  0
   -3.2906    1.7532  -20.7902 C   0  0  0  0  0  0  0  0  0  0  0  0
   -4.0477    1.3058  -21.8968 C   0  0  0  0  0  0  0  0  0  0  0  0
   -5.1337    0.4851  -21.7080 C   0  0  0  0  0  0  0  0  0  0  0  0
   -5.5184    0.0745  -20.3993 C   0  0  0  0  0  0  0  0  0  0  0  0
   -7.1695   -2.4542  -21.8010 C   0  0  0  0  0  0  0  0  0  0  0  0
   -8.3885   -2.6777  -22.7057 C   0  0  2  0  0  0  0  0  0  0  0  0
   -8.0361   -3.5580  -23.9091 C   0  0  0  0  0  0  0  0  0  0  0  0
   -8.0183   -5.2846  -23.5020 S   0  0  0  0  0  0  0  0  0  0  0  0
   -7.0061   -5.5286  -22.4844 O   0  0  0  0  0  0  0  0  0  0  0  0
   -8.0281   -6.0805  -24.7225 O   0  0  0  0  0  0  0  0  0  0  0  0
   -9.5026   -5.3677  -22.7486 N   0  0  0  0  0  0  0  0  0  0  0  0
  -10.7323   -5.3088  -23.5261 C   0  0  0  0  0  0  0  0  0  0  0  0
  -10.5106   -1.1989  -23.0640 C   0  0  0  0  0  0  0  0  0  0  0  0
  -11.3619   -2.1827  -22.5523 C   0  0  0  0  0  0  0  0  0  0  0  0
  -12.7370   -2.0093  -22.5884 C   0  0  0  0  0  0  0  0  0  0  0  0
  -13.7805   -3.2528  -21.9482 Cl  0  0  0  0  0  0  0  0  0  0  0  0
  -13.3172   -0.8539  -23.1008 C   0  0  0  0  0  0  0  0  0  0  0  0
  -12.4858    0.1219  -23.6092 C   0  0  0  0  0  0  0  0  0  0  0  0
  -11.1042   -0.0573  -23.6202 C   0  0  0  0  0  0  0  0  0  0  0  0
  -10.2709    0.9968  -24.2844 C   0  0  0  0  0  0  0  0  0  0  0  0
  -10.7029    2.1166  -24.5267 O   0  0  0  0  0  0  0  0  0  0  0  0
  1  2  1  0
  2  3  1  0
  3  4  2  0
  3  5  1  0
  5  6  1  0
  6  7  1  0
  8  7  1  6
  8  9  1  0
  9 10  2  0
  9 11  1  0
 11 12  1  0
 12 13  2  0
 13 14  1  0
 14 15  2  0
 15 16  1  0
 16 17  2  0
 17 18  1  0
 18 19  2  0
 19 20  1  0
 20 21  2  0
 11 22  1  0
 22 23  1  0
 23 24  1  6
 24 25  1  0
 25 26  2  0
 25 27  2  0
 25 28  1  0
 28 29  1  0
  8 30  1  0
 30 31  2  0
 31 32  1  0
 32 33  1  0
 32 34  2  0
 34 35  1  0
 35 36  2  0
 36 37  1  0
 37 38  2  0
 37  6  1  0
 23  8  1  0
 36 30  1  0
 21 12  1  0
 21 16  1  0
M  END
$$$$

     RDKit          3D

 25 27  0  0  0  0  0  0  0  0999 V2000
    6.6960    5.2395   21.5880 C   0  0  0  0  0  0  0  0  0  0  0  0
    6.6659    3.7092   21.6152 C   0  0  0  0  0  0  0  0  0  0  0  0
    8.0439    3.0204   21.7604 C   0  0  1  0  0  0  0  0  0  0  0  0
    9.0351    3.6243   22.7525 C   0  0  0  0  0  0  0  0  0  0  0  0
    8.9062    3.1226   24.1933 C   0  0  1  0  0  0  0  0  0  0  0  0
    7.8324    3.8571   24.9973 C   0  0  0  0  0  0  0  0  0  0  0  0
    8.0707    5.1863   25.0265 F   0  0  0  0  0  0  0  0  0  0  0  0
    6.5704    3.7075   24.5297 F   0  0  0  0  0  0  0  0  0  0  0  0
    7.7700    3.4066   26.2697 F   0  0  0  0  0  0  0  0  0  0  0  0
    8.7436    1.6117   24.3204 C   0  0  0  0  0  0  0  0  0  0  0  0
    7.6456    1.0934   23.4099 C   0  0  0  0  0  0  0  0  0  0  0  0
    7.8741    1.5841   22.0501 N   0  0  0  0  0  0  0  0  0  0  0  0
    7.7026    0.7881   20.9613 C   0  0  0  0  0  0  0  0  0  0  0  0
    8.1704    1.0696   19.8762 O   0  0  0  0  0  0  0  0  0  0  0  0
    6.8166   -0.4482   21.0776 C   0  0  0  0  0  0  0  0  0  0  0  0
    5.8071   -0.3005   19.9874 C   0  0  0  0  0  0  0  0  0  0  0  0
    6.0715   -0.8165   18.7475 C   0  0  0  0  0  0  0  0  0  0  0  0
    5.3017   -0.6234   17.6526 N   0  0  0  0  0  0  0  0  0  0  0  0
    4.2346    0.1296   17.8077 C   0  0  0  0  0  0  0  0  0  0  0  0
    3.8651    0.7591   19.0288 C   0  0  0  0  0  0  0  0  0  0  0  0
    2.7098    1.5709   19.1420 C   0  0  0  0  0  0  0  0  0  0  0  0
    2.3721    2.1545   20.3329 C   0  0  0  0  0  0  0  0  0  0  0  0
    3.2187    2.0085   21.4523 C   0  0  0  0  0  0  0  0  0  0  0  0
    4.3690    1.2612   21.3565 C   0  0  0  0  0  0  0  0  0  0  0  0
    4.6966    0.5711   20.1558 C   0  0  0  0  0  0  0  0  0  0  0  0
  1  2  1  0
  3  2  1  1
  3  4  1  0
  4  5  1  0
  5  6  1  6
  6  7  1  0
  6  8  1  0
  6  9  1  0
  5 10  1  0
 10 11  1  0
 11 12  1  0
 12 13  1  0
 13 14  2  0
 13 15  1  0
 15 16  1  0
 16 17  2  0
 17 18  1  0
 18 19  2  0
 19 20  1  0
 20 21  2  0
 21 22  1  0
 22 23  2  0
 23 24  1  0
 24 25  2  0
 12  3  1  0
 25 16  1  0
 25 20  1  0
M  END
$$$$

     RDKit          3D

 39 44  0  0  0  0  0  0  0  0999 V2000
    7.5097    4.1774   26.2902 C   0  0  0  0  0  0  0  0  0  0  0  0
    6.5859    4.8336   25.3372 N   0  0  0  0  0  0  0  0  0  0  0  0
    5.8388    3.9017   24.4203 C   0  0  0  0  0  0  0  0  0  0  0  0
    6.5831    3.6501   23.1033 C   0  0  0  0  0  0  0  0  0  0  0  0
    7.8154    2.8927   23.2543 N   0  0  0  0  0  0  0  0  0  0  0  0
    7.7560    1.4703   23.5190 C   0  0  0  0  0  0  0  0  0  0  0  0
    8.4729    0.6833   22.3910 C   0  0  2  0  0  0  0  0  0  0  0  0
    7.6877    0.9291   21.0912 C   0  0  0  0  0  0  0  0  0  0  0  0
    7.6880    1.9290   20.4039 O   0  0  0  0  0  0  0  0  0  0  0  0
    6.9189   -0.1828   20.8244 N   0  0  0  0  0  0  0  0  0  0  0  0
    5.8994   -0.1100   19.8459 C   0  0  0  0  0  0  0  0  0  0  0  0
    6.0598   -0.7648   18.6553 C   0  0  0  0  0  0  0  0  0  0  0  0
    5.2213   -0.6440   17.6009 N   0  0  0  0  0  0  0  0  0  0  0  0
    4.1727    0.1317   17.7526 C   0  0  0  0  0  0  0  0  0  0  0  0
    3.8467    0.8126   18.9592 C   0  0  0  0  0  0  0  0  0  0  0  0
    2.6773    1.6080   19.0884 C   0  0  0  0  0  0  0  0  0  0  0  0
    2.3464    2.1745   20.2883 C   0  0  0  0  0  0  0  0  0  0  0  0
    3.1781    1.9826   21.4126 C   0  0  0  0  0  0  0  0  0  0  0  0
    4.3261    1.2354   21.3046 C   0  0  0  0  0  0  0  0  0  0  0  0
    4.7120    0.6587   20.0627 C   0  0  0  0  0  0  0  0  0  0  0  0
    7.0938   -1.2745   21.7662 C   0  0  0  0  0  0  0  0  0  0  0  0
    8.3599   -0.8603   22.5410 C   0  0  2  0  0  0  0  0  0  0  0  0
    8.4470   -1.3939   23.9742 C   0  0  0  0  0  0  0  0  0  0  0  0
    9.6622   -1.0080   24.5936 O   0  0  0  0  0  0  0  0  0  0  0  0
   10.7085   -1.9402   24.4599 C   0  0  0  0  0  0  0  0  0  0  0  0
   11.8714   -1.4511   25.2830 C   0  0  0  0  0  0  0  0  0  0  0  0
   11.5363   -1.5241   26.6182 F   0  0  0  0  0  0  0  0  0  0  0  0
   13.2499   -2.0318   24.9666 C   0  0  0  0  0  0  0  0  0  0  0  0
   13.7480   -0.7426   24.5871 O   0  0  0  0  0  0  0  0  0  0  0  0
   12.4983   -0.1126   24.8928 C   0  0  0  0  0  0  0  0  0  0  0  0
    9.8835    1.2253   22.2925 C   0  0  0  0  0  0  0  0  0  0  0  0
   10.9607    0.4117   21.9161 C   0  0  0  0  0  0  0  0  0  0  0  0
   12.2353    0.9466   21.8307 C   0  0  0  0  0  0  0  0  0  0  0  0
   13.5706   -0.1052   21.4975 Cl  0  0  0  0  0  0  0  0  0  0  0  0
   12.4831    2.2964   22.0991 C   0  0  0  0  0  0  0  0  0  0  0  0
   11.4155    3.1069   22.4398 C   0  0  0  0  0  0  0  0  0  0  0  0
   10.1292    2.5839   22.5645 C   0  0  0  0  0  0  0  0  0  0  0  0
    9.0206    3.4977   23.0282 C   0  0  0  0  0  0  0  0  0  0  0  0
    9.1859    4.6999   23.2107 O   0  0  0  0  0  0  0  0  0  0  0  0
  1  2  1  0
  2  3  1  0
  3  4  1  0
  4  5  1  0
  5  6  1  0
  7  6  1  1
  7  8  1  0
  8  9  2  0
  8 10  1  0
 10 11  1  0
 11 12  2  0
 12 13  1  0
 13 14  2  0
 14 15  1  0
 15 16  2  0
 16 17  1  0
 17 18  2  0
 18 19  1  0
 19 20  2  0
 10 21  1  0
 21 22  1  0
 22 23  1  1
 23 24  1  0
 24 25  1  0
 25 26  1  0
 26 27  1  0
 26 28  1  0
 28 29  1  0
 29 30  1  0
  7 31  1  0
 31 32  2  0
 32 33  1  0
 33 34  1  0
 33 35  2  0
 35 36  1  0
 36 37  2  0
 37 38  1  0
 38 39  2  0
 38  5  1  0
 22  7  1  0
 30 26  1  0
 37 31  1  0
 20 11  1  0
 20 15  1  0
M  CHG  1   2   1
M  END
$$$$

     RDKit          3D

 39 44  0  0  0  0  0  0  0  0999 V2000
    5.0987    6.4164   23.5146 C   0  0  0  0  0  0  0  0  0  0  0  0
    4.8737    5.1776   22.7417 N   0  0  0  0  0  0  0  0  0  0  0  0
    6.1189    4.3801   22.5092 C   0  0  0  0  0  0  0  0  0  0  0  0
    6.6584    3.7091   23.7866 C   0  0  0  0  0  0  0  0  0  0  0  0
    7.8121    2.8760   23.4905 N   0  0  0  0  0  0  0  0  0  0  0  0
    7.7462    1.4274   23.6043 C   0  0  0  0  0  0  0  0  0  0  0  0
    8.4951    0.7235   22.4365 C   0  0  2  0  0  0  0  0  0  0  0  0
    7.6796    0.9725   21.1426 C   0  0  0  0  0  0  0  0  0  0  0  0
    7.6460    1.9809   20.4677 O   0  0  0  0  0  0  0  0  0  0  0  0
    6.9305   -0.1527   20.8697 N   0  0  0  0  0  0  0  0  0  0  0  0
    5.9088   -0.1090   19.8862 C   0  0  0  0  0  0  0  0  0  0  0  0
    6.0678   -0.7762   18.6989 C   0  0  0  0  0  0  0  0  0  0  0  0
    5.2342   -0.6611   17.6369 N   0  0  0  0  0  0  0  0  0  0  0  0
    4.1822    0.1129   17.7739 C   0  0  0  0  0  0  0  0  0  0  0  0
    3.8518    0.7983   18.9770 C   0  0  0  0  0  0  0  0  0  0  0  0
    2.6767    1.5880   19.0944 C   0  0  0  0  0  0  0  0  0  0  0  0
    2.3327    2.1605   20.2881 C   0  0  0  0  0  0  0  0  0  0  0  0
    3.1714    1.9977   21.4116 C   0  0  0  0  0  0  0  0  0  0  0  0
    4.3391    1.2824   21.3115 C   0  0  0  0  0  0  0  0  0  0  0  0
    4.7199    0.6649   20.0846 C   0  0  0  0  0  0  0  0  0  0  0  0
    7.1568   -1.2443   21.7990 C   0  0  0  0  0  0  0  0  0  0  0  0
    8.4500   -0.8232   22.5224 C   0  0  2  0  0  0  0  0  0  0  0  0
    8.6105   -1.4658   23.9099 C   0  0  0  0  0  0  0  0  0  0  0  0
    9.7833   -1.0510   24.6658 N   0  0  0  0  0  0  0  0  0  0  0  0
   11.0395   -1.4024   24.3085 C   0  0  0  0  0  0  0  0  0  0  0  0
   12.0508   -0.8542   25.0218 N   0  0  0  0  0  0  0  0  0  0  0  0
   13.2572   -1.1294   24.5447 C   0  0  0  0  0  0  0  0  0  0  0  0
   13.5352   -1.8748   23.4741 N   0  0  0  0  0  0  0  0  0  0  0  0
   12.4569   -2.3312   22.8360 C   0  0  0  0  0  0  0  0  0  0  0  0
   11.2011   -2.2245   23.2551 N   0  0  0  0  0  0  0  0  0  0  0  0
    9.8895    1.3181   22.3602 C   0  0  0  0  0  0  0  0  0  0  0  0
   11.0010    0.5866   21.9267 C   0  0  0  0  0  0  0  0  0  0  0  0
   12.2477    1.1953   21.8662 C   0  0  0  0  0  0  0  0  0  0  0  0
   13.6514    0.2783   21.4245 Cl  0  0  0  0  0  0  0  0  0  0  0  0
   12.4310    2.5500   22.1344 C   0  0  0  0  0  0  0  0  0  0  0  0
   11.3221    3.2790   22.4900 C   0  0  0  0  0  0  0  0  0  0  0  0
   10.0832    2.6717   22.6611 C   0  0  0  0  0  0  0  0  0  0  0  0
    8.9716    3.5255   23.1850 C   0  0  0  0  0  0  0  0  0  0  0  0
    9.0945    4.7429   23.3135 O   0  0  0  0  0  0  0  0  0  0  0  0
  1  2  1  0
  2  3  1  0
  3  4  1  0
  4  5  1  0
  5  6  1  0
  7  6  1  1
  7  8  1  0
  8  9  2  0
  8 10  1  0
 10 11  1  0
 11 12  2  0
 12 13  1  0
 13 14  2  0
 14 15  1  0
 15 16  2  0
 16 17  1  0
 17 18  2  0
 18 19  1  0
 19 20  2  0
 10 21  1  0
 21 22  1  0
 22 23  1  1
 23 24  1  0
 24 25  1  0
 25 26  2  0
 26 27  1  0
 27 28  2  0
 28 29  1  0
 29 30  2  0
  7 31  1  0
 31 32  2  0
 32 33  1  0
 33 34  1  0
 33 35  2  0
 35 36  1  0
 36 37  2  0
 37 38  1  0
 38 39  2  0
 38  5  1  0
 22  7  1  0
 30 25  1  0
 37 31  1  0
 20 11  1  0
 20 15  1  0
M  CHG  1   2   1
M  END
$$$$

     RDKit          3D

 39 44  0  0  0  0  0  0  0  0999 V2000
    7.2066    5.2287   27.1352 C   0  0  0  0  0  0  0  0  0  0  0  0
    7.3791    4.9361   25.7270 N   0  0  0  0  0  0  0  0  0  0  0  0
    6.6507    3.9448   25.1574 C   0  0  0  0  0  0  0  0  0  0  0  0
    5.9177    3.2028   25.7973 O   0  0  0  0  0  0  0  0  0  0  0  0
    6.8102    3.8243   23.6375 C   0  0  0  0  0  0  0  0  0  0  0  0
    7.9347    2.9903   23.2548 N   0  0  0  0  0  0  0  0  0  0  0  0
    7.8400    1.5633   23.4918 C   0  0  0  0  0  0  0  0  0  0  0  0
    8.5269    0.7641   22.3536 C   0  0  2  0  0  0  0  0  0  0  0  0
    7.7122    1.0254   21.0674 C   0  0  0  0  0  0  0  0  0  0  0  0
    7.6778    2.0358   20.4037 O   0  0  0  0  0  0  0  0  0  0  0  0
    6.9540   -0.0955   20.7901 N   0  0  0  0  0  0  0  0  0  0  0  0
    5.9150   -0.0621   19.8278 C   0  0  0  0  0  0  0  0  0  0  0  0
    6.0539   -0.7531   18.6529 C   0  0  0  0  0  0  0  0  0  0  0  0
    5.2033   -0.6554   17.6036 N   0  0  0  0  0  0  0  0  0  0  0  0
    4.1541    0.1207   17.7486 C   0  0  0  0  0  0  0  0  0  0  0  0
    3.8315    0.8086   18.9524 C   0  0  0  0  0  0  0  0  0  0  0  0
    2.6534    1.5897   19.0859 C   0  0  0  0  0  0  0  0  0  0  0  0
    2.3213    2.1519   20.2865 C   0  0  0  0  0  0  0  0  0  0  0  0
    3.1647    1.9804   21.4063 C   0  0  0  0  0  0  0  0  0  0  0  0
    4.3343    1.2710   21.2920 C   0  0  0  0  0  0  0  0  0  0  0  0
    4.7119    0.6859   20.0490 C   0  0  0  0  0  0  0  0  0  0  0  0
    7.1429   -1.1948   21.7081 C   0  0  0  0  0  0  0  0  0  0  0  0
    8.3725   -0.7718   22.5307 C   0  0  2  0  0  0  0  0  0  0  0  0
    8.3447   -1.2557   23.9911 C   0  0  0  0  0  0  0  0  0  0  0  0
    8.4366   -2.7558   24.1368 C   0  0  0  0  0  0  0  0  0  0  0  0
    7.3041   -3.5791   24.1135 C   0  0  0  0  0  0  0  0  0  0  0  0
    7.4151   -4.9537   24.3041 C   0  0  0  0  0  0  0  0  0  0  0  0
    8.6590   -5.5349   24.5418 C   0  0  0  0  0  0  0  0  0  0  0  0
    9.7936   -4.7265   24.5388 C   0  0  0  0  0  0  0  0  0  0  0  0
    9.6817   -3.3641   24.3147 C   0  0  0  0  0  0  0  0  0  0  0  0
    9.9615    1.2707   22.2838 C   0  0  0  0  0  0  0  0  0  0  0  0
   11.0513    0.4239   22.0272 C   0  0  0  0  0  0  0  0  0  0  0  0
   12.3264    0.9484   21.9361 C   0  0  0  0  0  0  0  0  0  0  0  0
   13.6574   -0.1223   21.6195 Cl  0  0  0  0  0  0  0  0  0  0  0  0
   12.5729    2.3119   22.0655 C   0  0  0  0  0  0  0  0  0  0  0  0
   11.5105    3.1480   22.3414 C   0  0  0  0  0  0  0  0  0  0  0  0
   10.2216    2.6404   22.5095 C   0  0  0  0  0  0  0  0  0  0  0  0
    9.1464    3.5777   23.0212 C   0  0  0  0  0  0  0  0  0  0  0  0
    9.3332    4.7700   23.2433 O   0  0  0  0  0  0  0  0  0  0  0  0
  1  2  1  0
  2  3  1  0
  3  4  2  0
  3  5  1  0
  5  6  1  0
  6  7  1  0
  8  7  1  1
  8  9  1  0
  9 10  2  0
  9 11  1  0
 11 12  1  0
 12 13  2  0
 13 14  1  0
 14 15  2  0
 15 16  1  0
 16 17  2  0
 17 18  1  0
 18 19  2  0
 19 20  1  0
 20 21  2  0
 11 22  1  0
 22 23  1  0
 23 24  1  1
 24 25  1  0
 25 26  2  0
 26 27  1  0
 27 28  2  0
 28 29  1  0
 29 30  2  0
  8 31  1  0
 31 32  2  0
 32 33  1  0
 33 34  1  0
 33 35  2  0
 35 36  1  0
 36 37  2  0
 37 38  1  0
 38 39  2  0
 38  6  1  0
 23  8  1  0
 30 25  1  0
 37 31  1  0
 21 12  1  0
 21 16  1  0
M  END
$$$$

     RDKit          3D

 41 47  0  0  0  0  0  0  0  0999 V2000
   11.0351    3.0807   24.1394 O   0  0  0  0  0  0  0  0  0  0  0  0
   10.5157    2.0242   23.8122 C   0  0  0  0  0  0  0  0  0  0  0  0
   11.3204    0.8944   23.2176 C   0  0  0  0  0  0  0  0  0  0  0  0
   12.7093    1.0017   23.2403 C   0  0  0  0  0  0  0  0  0  0  0  0
   13.4968    0.0586   22.6097 C   0  0  0  0  0  0  0  0  0  0  0  0
   12.8719   -0.9673   21.9005 C   0  0  0  0  0  0  0  0  0  0  0  0
   13.8184   -2.0574   20.9360 Cl  0  0  0  0  0  0  0  0  0  0  0  0
   11.4977   -1.1158   21.9038 C   0  0  0  0  0  0  0  0  0  0  0  0
   10.7014   -0.2057   22.6087 C   0  0  0  0  0  0  0  0  0  0  0  0
    9.1920   -0.2923   22.6352 C   0  0  1  0  0  0  0  0  0  0  0  0
    8.7151    0.3963   23.9418 C   0  0  0  0  0  0  0  0  0  0  0  0
    9.1775    1.7716   23.9903 N   0  0  0  0  0  0  0  0  0  0  0  0
    8.3087    2.8497   24.4402 C   0  0  0  0  0  0  0  0  0  0  0  0
    8.0223    3.9078   23.4282 C   0  0  0  0  0  0  0  0  0  0  0  0
    8.3299    5.1617   23.4053 N   0  0  0  0  0  0  0  0  0  0  0  0
    7.7452    5.6867   22.2589 N   0  0  0  0  0  0  0  0  0  0  0  0
    7.1221    4.7044   21.6976 C   0  0  0  0  0  0  0  0  0  0  0  0
    7.2412    3.5525   22.3883 O   0  0  0  0  0  0  0  0  0  0  0  0
    8.5891    0.4470   21.4244 C   0  0  0  0  0  0  0  0  0  0  0  0
    8.9118    1.5176   20.9564 O   0  0  0  0  0  0  0  0  0  0  0  0
    7.5549   -0.3159   20.9326 N   0  0  0  0  0  0  0  0  0  0  0  0
    6.7418    0.2047   19.9060 C   0  0  0  0  0  0  0  0  0  0  0  0
    7.0688   -0.0326   18.5977 C   0  0  0  0  0  0  0  0  0  0  0  0
    6.3508    0.4321   17.5478 N   0  0  0  0  0  0  0  0  0  0  0  0
    5.3036    1.1764   17.8221 C   0  0  0  0  0  0  0  0  0  0  0  0
    4.8843    1.5281   19.1387 C   0  0  0  0  0  0  0  0  0  0  0  0
    3.7597    2.3568   19.3948 C   0  0  0  0  0  0  0  0  0  0  0  0
    3.3745    2.6349   20.6791 C   0  0  0  0  0  0  0  0  0  0  0  0
    4.1002    2.1123   21.7748 C   0  0  0  0  0  0  0  0  0  0  0  0
    5.2086    1.3315   21.5555 C   0  0  0  0  0  0  0  0  0  0  0  0
    5.6182    1.0196   20.2265 C   0  0  0  0  0  0  0  0  0  0  0  0
    7.2823   -1.5228   21.6801 C   0  0  0  0  0  0  0  0  0  0  0  0
    8.5912   -1.7113   22.4668 C   0  0  2  0  0  0  0  0  0  0  0  0
    8.4288   -2.5143   23.7649 C   0  0  0  0  0  0  0  0  0  0  0  0
    8.1458   -3.9236   23.5596 N   0  0  0  0  0  0  0  0  0  0  0  0
    6.9140   -4.4281   23.2525 C   0  0  0  0  0  0  0  0  0  0  0  0
    5.7087   -3.8605   23.7096 C   0  0  0  0  0  0  0  0  0  0  0  0
    4.5619   -4.5688   23.4049 C   0  0  0  0  0  0  0  0  0  0  0  0
    4.5441   -5.6742   22.6511 N   0  0  0  0  0  0  0  0  0  0  0  0
    5.7364   -6.0853   22.2420 C   0  0  0  0  0  0  0  0  0  0  0  0
    6.9174   -5.5497   22.5154 N   0  0  0  0  0  0  0  0  0  0  0  0
  1  2  2  0
  2  3  1  0
  3  4  2  0
  4  5  1  0
  5  6  2  0
  6  7  1  0
  6  8  1  0
  8  9  2  0
  9 10  1  0
 10 11  1  1
 11 12  1  0
 12 13  1  0
 13 14  1  0
 14 15  2  0
 15 16  1  0
 16 17  2  0
 17 18  1  0
 10 19  1  0
 19 20  2  0
 19 21  1  0
 21 22  1  0
 22 23  2  0
 23 24  1  0
 24 25  2  0
 25 26  1  0
 26 27  2  0
 27 28  1  0
 28 29  2  0
 29 30  1  0
 30 31  2  0
 21 32  1  0
 32 33  1  0
 33 34  1  1
 34 35  1  0
 35 36  1  0
 36 37  2  0
 37 38  1  0
 38 39  2  0
 39 40  1  0
 40 41  2  0
 12  2  1  0
 18 14  1  0
 31 22  1  0
 41 36  1  0
  9  3  1  0
 33 10  1  0
 31 26  1  0
M  END
>  <cnnaffinities>  (61) 
[6.95953, 6.99478, 7.05809, 6.85427, 6.98557, 6.81269, 7.03701, 6.9854, 7.08214]

>  <score>  (61) 
6.95953

>  <index>  (61) 
1

>  <Smiles>  (61) 
O=C1c2c(c(c(Cl)c(c2[C@@]2(C(N1C(c1nnc(o1)[H])([H])[H])([H])[H])C(=O)N(c1c(nc(c3c(c(c(c(c13)[H])[H])[H])[H])[H])[H])C([C@@]2(C(N(c1c(c(nc(n1)[H])[H])[H])[H])([H])[H])[H])([H])[H])[H])[H])[H]

>  <h>  (61) 
<NA>

>  <Training>  (61) 
True

>  <Success>  (61) 
True

>  <enamine_searched>  (61) 
False

>  <enamine_id>  (61) 
nan

$$$$

     RDKit          3D

 38 43  0  0  0  0  0  0  0  0999 V2000
    8.4537   -1.3883   23.9539 C   0  0  0  0  0  0  0  0  0  0  0  0
    8.3685   -0.8174   22.5461 C   0  0  1  0  0  0  0  0  0  0  0  0
    7.1236   -1.2475   21.7617 C   0  0  0  0  0  0  0  0  0  0  0  0
    6.9062   -0.1393   20.8581 N   0  0  0  0  0  0  0  0  0  0  0  0
    5.8967   -0.0960   19.8676 C   0  0  0  0  0  0  0  0  0  0  0  0
    6.0430   -0.7765   18.6873 C   0  0  0  0  0  0  0  0  0  0  0  0
    5.2040   -0.6666   17.6281 N   0  0  0  0  0  0  0  0  0  0  0  0
    4.1539    0.1109   17.7646 C   0  0  0  0  0  0  0  0  0  0  0  0
    3.8289    0.7952   18.9709 C   0  0  0  0  0  0  0  0  0  0  0  0
    2.6520    1.5823   19.1016 C   0  0  0  0  0  0  0  0  0  0  0  0
    2.3288    2.1699   20.2950 C   0  0  0  0  0  0  0  0  0  0  0  0
    3.1905    2.0370   21.4069 C   0  0  0  0  0  0  0  0  0  0  0  0
    4.3505    1.3065   21.2993 C   0  0  0  0  0  0  0  0  0  0  0  0
    4.7093    0.6756   20.0714 C   0  0  0  0  0  0  0  0  0  0  0  0
    7.6538    0.9832   21.1371 C   0  0  0  0  0  0  0  0  0  0  0  0
    7.6145    1.9984   20.4784 O   0  0  0  0  0  0  0  0  0  0  0  0
    8.4734    0.7239   22.4204 C   0  0  1  0  0  0  0  0  0  0  0  0
    7.8089    1.4815   23.6106 C   0  0  0  0  0  0  0  0  0  0  0  0
    7.9321    2.9230   23.4894 N   0  0  0  0  0  0  0  0  0  0  0  0
    6.8140    3.8065   23.7761 C   0  0  0  0  0  0  0  0  0  0  0  0
    6.2734    4.4363   22.4937 C   0  0  0  0  0  0  0  0  0  0  0  0
    5.0394    5.2283   22.7416 N   0  0  1  0  0  0  0  0  0  0  0  0
    5.2874    6.4523   23.5877 C   0  0  0  0  0  0  0  0  0  0  0  0
    3.9998    7.2347   23.7678 C   0  0  0  0  0  0  0  0  0  0  0  0
    3.4347    7.6019   22.5275 O   0  0  0  0  0  0  0  0  0  0  0  0
    3.1419    6.4901   21.6716 C   0  0  0  0  0  0  0  0  0  0  0  0
    2.0129    5.6374   22.2556 C   0  0  0  0  0  0  0  0  0  0  0  0
    2.7309    7.1137   20.3477 C   0  0  0  0  0  0  0  0  0  0  0  0
    4.3980    5.6386   21.4522 C   0  0  0  0  0  0  0  0  0  0  0  0
    9.1001    3.5154   23.0874 C   0  0  0  0  0  0  0  0  0  0  0  0
    9.2872    4.7222   23.1791 O   0  0  0  0  0  0  0  0  0  0  0  0
   10.1503    2.5969   22.5288 C   0  0  0  0  0  0  0  0  0  0  0  0
   11.4228    3.1316   22.3208 C   0  0  0  0  0  0  0  0  0  0  0  0
   12.4966    2.3076   22.0551 C   0  0  0  0  0  0  0  0  0  0  0  0
   12.2723    0.9402   21.9431 C   0  0  0  0  0  0  0  0  0  0  0  0
   13.6381   -0.1078   21.6993 Cl  0  0  0  0  0  0  0  0  0  0  0  0
   11.0029    0.3946   22.0254 C   0  0  0  0  0  0  0  0  0  0  0  0
    9.9024    1.2313   22.3083 C   0  0  0  0  0  0  0  0  0  0  0  0
  2  1  1  1
  2  3  1  0
  3  4  1  0
  4  5  1  0
  5  6  2  0
  6  7  1  0
  7  8  2  0
  8  9  1  0
  9 10  2  0
 10 11  1  0
 11 12  2  0
 12 13  1  0
 13 14  2  0
  4 15  1  0
 15 16  2  0
 15 17  1  0
 17 18  1  1
 18 19  1  0
 19 20  1  0
 20 21  1  0
 22 21  1  6
 22 23  1  0
 23 24  1  0
 24 25  1  0
 25 26  1  0
 26 27  1  0
 26 28  1  0
 26 29  1  0
 19 30  1  0
 30 31  2  0
 30 32  1  0
 32 33  2  0
 33 34  1  0
 34 35  2  0
 35 36  1  0
 35 37  1  0
 37 38  2  0
 17  2  1  0
 29 22  1  0
 38 32  1  0
 14  5  1  0
 38 17  1  0
 14  9  1  0
M  CHG  1  22   1
M  END
$$$$

     RDKit          3D

 34 39  0  0  0  0  0  0  0  0999 V2000
   -8.4251   -3.8506  -23.6914 C   0  0  0  0  0  0  0  0  0  0  0  0
   -8.5216   -2.8478  -22.5534 C   0  0  1  0  0  0  0  0  0  0  0  0
   -7.2044   -2.5834  -21.8144 C   0  0  0  0  0  0  0  0  0  0  0  0
   -7.4920   -1.3380  -21.1321 N   0  0  0  0  0  0  0  0  0  0  0  0
   -6.6424   -0.8200  -20.1173 C   0  0  0  0  0  0  0  0  0  0  0  0
   -6.8577   -1.1885  -18.8104 C   0  0  0  0  0  0  0  0  0  0  0  0
   -6.0696   -0.8282  -17.7692 N   0  0  0  0  0  0  0  0  0  0  0  0
   -5.0400   -0.0602  -18.0259 C   0  0  0  0  0  0  0  0  0  0  0  0
   -4.7176    0.4239  -19.3247 C   0  0  0  0  0  0  0  0  0  0  0  0
   -3.6464    1.3341  -19.5272 C   0  0  0  0  0  0  0  0  0  0  0  0
   -3.3304    1.7539  -20.7877 C   0  0  0  0  0  0  0  0  0  0  0  0
   -4.0566    1.2773  -21.9019 C   0  0  0  0  0  0  0  0  0  0  0  0
   -5.1407    0.4481  -21.7251 C   0  0  0  0  0  0  0  0  0  0  0  0
   -5.5118    0.0111  -20.4213 C   0  0  0  0  0  0  0  0  0  0  0  0
   -8.4800   -0.5960  -21.7582 C   0  0  0  0  0  0  0  0  0  0  0  0
   -8.8073    0.5185  -21.4372 O   0  0  0  0  0  0  0  0  0  0  0  0
   -9.0576   -1.4420  -22.9305 C   0  0  1  0  0  0  0  0  0  0  0  0
   -8.4797   -0.9070  -24.2730 C   0  0  0  0  0  0  0  0  0  0  0  0
   -8.9457    0.4387  -24.5655 N   0  0  0  0  0  0  0  0  0  0  0  0
   -8.1346    1.3492  -25.3543 C   0  0  0  0  0  0  0  0  0  0  0  0
   -7.6403    2.5253  -24.5541 C   0  0  0  0  0  0  0  0  0  0  0  0
   -7.4896    3.8783  -24.8960 C   0  0  0  0  0  0  0  0  0  0  0  0
   -6.9623    4.5339  -23.8630 N   0  0  0  0  0  0  0  0  0  0  0  0
   -6.8086    3.5851  -22.9634 N   0  0  0  0  0  0  0  0  0  0  0  0
   -7.1843    2.3647  -23.3102 N   0  0  0  0  0  0  0  0  0  0  0  0
  -10.1878    0.8853  -24.2121 C   0  0  0  0  0  0  0  0  0  0  0  0
  -10.5410    2.0448  -24.3899 O   0  0  0  0  0  0  0  0  0  0  0  0
  -11.0930   -0.1411  -23.6033 C   0  0  0  0  0  0  0  0  0  0  0  0
  -12.4614    0.1284  -23.5893 C   0  0  0  0  0  0  0  0  0  0  0  0
  -13.3503   -0.8001  -23.0898 C   0  0  0  0  0  0  0  0  0  0  0  0
  -12.8289   -2.0017  -22.6257 C   0  0  0  0  0  0  0  0  0  0  0  0
  -13.6900   -2.9109  -22.1362 F   0  0  0  0  0  0  0  0  0  0  0  0
  -11.4788   -2.2991  -22.6252 C   0  0  0  0  0  0  0  0  0  0  0  0
  -10.5692   -1.3226  -23.0550 C   0  0  0  0  0  0  0  0  0  0  0  0
  2  1  1  6
  2  3  1  0
  3  4  1  0
  4  5  1  0
  5  6  2  0
  6  7  1  0
  7  8  2  0
  8  9  1  0
  9 10  2  0
 10 11  1  0
 11 12  2  0
 12 13  1  0
 13 14  2  0
  4 15  1  0
 15 16  2  0
 15 17  1  0
 17 18  1  6
 18 19  1  0
 19 20  1  0
 20 21  1  0
 21 22  1  0
 22 23  2  0
 23 24  1  0
 24 25  1  0
 19 26  1  0
 26 27  2  0
 26 28  1  0
 28 29  2  0
 29 30  1  0
 30 31  2  0
 31 32  1  0
 31 33  1  0
 33 34  2  0
 17  2  1  0
 25 21  2  0
 34 28  1  0
 14  5  1  0
 34 17  1  0
 14  9  1  0
M  END
$$$$

     RDKit          3D

 25 28  0  0  0  0  0  0  0  0999 V2000
    8.0325    1.6100   20.2768 O   0  0  0  0  0  0  0  0  0  0  0  0
    7.7206    0.9707   21.2623 C   0  0  0  0  0  0  0  0  0  0  0  0
    6.8831   -0.3122   21.0850 C   0  0  0  0  0  0  0  0  0  0  0  0
    5.8657   -0.1772   19.9767 C   0  0  0  0  0  0  0  0  0  0  0  0
    6.0394   -0.7987   18.7684 C   0  0  0  0  0  0  0  0  0  0  0  0
    5.2227   -0.6719   17.6866 N   0  0  0  0  0  0  0  0  0  0  0  0
    4.1619    0.0832   17.8292 C   0  0  0  0  0  0  0  0  0  0  0  0
    3.8204    0.7456   19.0393 C   0  0  0  0  0  0  0  0  0  0  0  0
    2.6377    1.5137   19.1708 C   0  0  0  0  0  0  0  0  0  0  0  0
    2.3329    2.1473   20.3427 C   0  0  0  0  0  0  0  0  0  0  0  0
    3.2186    2.0510   21.4385 C   0  0  0  0  0  0  0  0  0  0  0  0
    4.3713    1.3136   21.3413 C   0  0  0  0  0  0  0  0  0  0  0  0
    4.7004    0.6264   20.1431 C   0  0  0  0  0  0  0  0  0  0  0  0
    8.1100    1.3851   22.5064 N   0  0  0  0  0  0  0  0  0  0  0  0
    8.8658    2.6268   22.6550 C   0  0  0  0  0  0  0  0  0  0  0  0
    9.2854    2.6502   24.1248 C   0  0  0  0  0  0  0  0  0  0  0  0
    8.3925    1.6261   24.8359 C   0  0  0  0  0  0  0  0  0  0  0  0
    7.9039    0.6648   23.7465 C   0  0  2  0  0  0  0  0  0  0  0  0
    8.6247   -0.6676   23.7712 C   0  0  0  0  0  0  0  0  0  0  0  0
    7.9814   -1.8018   24.2629 C   0  0  0  0  0  0  0  0  0  0  0  0
    8.6408   -3.0255   24.3102 C   0  0  0  0  0  0  0  0  0  0  0  0
    9.9551   -3.1382   23.8761 C   0  0  0  0  0  0  0  0  0  0  0  0
   10.5817   -1.9926   23.4149 C   0  0  0  0  0  0  0  0  0  0  0  0
   11.8555   -2.0820   22.9960 F   0  0  0  0  0  0  0  0  0  0  0  0
    9.9528   -0.7602   23.3611 C   0  0  0  0  0  0  0  0  0  0  0  0
  1  2  2  0
  2  3  1  0
  3  4  1  0
  4  5  2  0
  5  6  1  0
  6  7  2  0
  7  8  1  0
  8  9  2  0
  9 10  1  0
 10 11  2  0
 11 12  1  0
 12 13  2  0
  2 14  1  0
 14 15  1  0
 15 16  1  0
 16 17  1  0
 17 18  1  0
 18 19  1  6
 19 20  2  0
 20 21  1  0
 21 22  2  0
 22 23  1  0
 23 24  1  0
 23 25  2  0
 13  4  1  0
 18 14  1  0
 25 19  1  0
 13  8  1  0
M  END
>  <cnnaffinities>  (64) 
[5.66257, 5.58651, 5.59941, 5.61438, 5.54768]

>  <score>  (64) 
5.66257

>  <index>  (64) 
33

>  <Smiles>  (64) 
O=C(C(c1c(nc(c2c(c(c(c(c12)[H])[H])[H])[H])[H])[H])([H])[H])N1C(C(C([C@@]1(c1c(c(c(c(F)c1[H])[H])[H])[H])[H])([H])[H])([H])[H])([H])[H]

>  <h>  (64) 
<NA>

>  <Training>  (64) 
True

>  <Success>  (64) 
True

>  <enamine_searched>  (64) 
False

>  <enamine_id>  (64) 
nan

$$$$

     RDKit          3D

 36 41  0  0  0  0  0  0  0  0999 V2000
   -8.4232   -3.8376  -23.6949 C   0  0  0  0  0  0  0  0  0  0  0  0
   -8.5231   -2.8320  -22.5564 C   0  0  1  0  0  0  0  0  0  0  0  0
   -7.2058   -2.5776  -21.8112 C   0  0  0  0  0  0  0  0  0  0  0  0
   -7.4900   -1.3314  -21.1303 N   0  0  0  0  0  0  0  0  0  0  0  0
   -6.6399   -0.8147  -20.1144 C   0  0  0  0  0  0  0  0  0  0  0  0
   -6.8600   -1.1801  -18.8079 C   0  0  0  0  0  0  0  0  0  0  0  0
   -6.0770   -0.8122  -17.7653 N   0  0  0  0  0  0  0  0  0  0  0  0
   -5.0550   -0.0345  -18.0205 C   0  0  0  0  0  0  0  0  0  0  0  0
   -4.7307    0.4498  -19.3194 C   0  0  0  0  0  0  0  0  0  0  0  0
   -3.6563    1.3548  -19.5282 C   0  0  0  0  0  0  0  0  0  0  0  0
   -3.3288    1.7597  -20.7890 C   0  0  0  0  0  0  0  0  0  0  0  0
   -4.0531    1.2793  -21.9022 C   0  0  0  0  0  0  0  0  0  0  0  0
   -5.1366    0.4499  -21.7203 C   0  0  0  0  0  0  0  0  0  0  0  0
   -5.5172    0.0243  -20.4171 C   0  0  0  0  0  0  0  0  0  0  0  0
   -8.4716   -0.5818  -21.7571 C   0  0  0  0  0  0  0  0  0  0  0  0
   -8.7841    0.5417  -21.4441 O   0  0  0  0  0  0  0  0  0  0  0  0
   -9.0573   -1.4227  -22.9292 C   0  0  1  0  0  0  0  0  0  0  0  0
   -8.4870   -0.8813  -24.2713 C   0  0  0  0  0  0  0  0  0  0  0  0
   -8.9657    0.4590  -24.5660 N   0  0  0  0  0  0  0  0  0  0  0  0
   -8.1424    1.3726  -25.3325 C   0  0  0  0  0  0  0  0  0  0  0  0
   -7.7227    2.6006  -24.5544 C   0  0  0  0  0  0  0  0  0  0  0  0
   -7.8006    3.8452  -25.0979 C   0  0  0  0  0  0  0  0  0  0  0  0
   -7.3747    5.0048  -24.3422 C   0  0  0  0  0  0  0  0  0  0  0  0
   -7.3603    6.1679  -24.6878 O   0  0  0  0  0  0  0  0  0  0  0  0
   -6.9331    4.6343  -23.0514 N   0  0  0  0  0  0  0  0  0  0  0  0
   -6.8431    3.3558  -22.6042 C   0  0  0  0  0  0  0  0  0  0  0  0
   -7.1970    2.3343  -23.3210 N   0  0  0  0  0  0  0  0  0  0  0  0
  -10.2174    0.8877  -24.2306 C   0  0  0  0  0  0  0  0  0  0  0  0
  -10.5971    2.0352  -24.4228 O   0  0  0  0  0  0  0  0  0  0  0  0
  -11.1043   -0.1440  -23.6115 C   0  0  0  0  0  0  0  0  0  0  0  0
  -12.4713    0.1228  -23.5974 C   0  0  0  0  0  0  0  0  0  0  0  0
  -13.3539   -0.8000  -23.0789 C   0  0  0  0  0  0  0  0  0  0  0  0
  -12.8262   -1.9944  -22.6018 C   0  0  0  0  0  0  0  0  0  0  0  0
  -13.6811   -2.8984  -22.0921 F   0  0  0  0  0  0  0  0  0  0  0  0
  -11.4752   -2.2870  -22.6046 C   0  0  0  0  0  0  0  0  0  0  0  0
  -10.5694   -1.3145  -23.0520 C   0  0  0  0  0  0  0  0  0  0  0  0
  2  1  1  6
  2  3  1  0
  3  4  1  0
  4  5  1  0
  5  6  2  0
  6  7  1  0
  7  8  2  0
  8  9  1  0
  9 10  2  0
 10 11  1  0
 11 12  2  0
 12 13  1  0
 13 14  2  0
  4 15  1  0
 15 16  2  0
 15 17  1  0
 17 18  1  6
 18 19  1  0
 19 20  1  0
 20 21  1  0
 21 22  2  0
 22 23  1  0
 23 24  2  0
 23 25  1  0
 25 26  1  0
 26 27  2  0
 19 28  1  0
 28 29  2  0
 28 30  1  0
 30 31  2  0
 31 32  1  0
 32 33  2  0
 33 34  1  0
 33 35  1  0
 35 36  2  0
 17  2  1  0
 27 21  1  0
 36 30  1  0
 14  5  1  0
 36 17  1  0
 14  9  1  0
M  END
$$$$

     RDKit          3D

 40 45  0  0  0  0  0  0  0  0999 V2000
   -7.0091    3.6327  -22.4894 C   0  0  0  0  0  0  0  0  0  0  0  0
   -7.7957    2.6945  -23.2687 N   0  0  0  0  0  0  0  0  0  0  0  0
   -7.5046    2.5242  -24.5778 C   0  0  0  0  0  0  0  0  0  0  0  0
   -6.7357    3.2404  -25.2042 O   0  0  0  0  0  0  0  0  0  0  0  0
   -8.1583    1.3526  -25.3202 C   0  0  0  0  0  0  0  0  0  0  0  0
   -8.9884    0.4586  -24.5548 N   0  0  0  0  0  0  0  0  0  0  0  0
   -8.5103   -0.8890  -24.2805 C   0  0  0  0  0  0  0  0  0  0  0  0
   -9.0687   -1.4265  -22.9394 C   0  0  2  0  0  0  0  0  0  0  0  0
   -8.4704   -0.5760  -21.7907 C   0  0  0  0  0  0  0  0  0  0  0  0
   -8.7798    0.5665  -21.5101 O   0  0  0  0  0  0  0  0  0  0  0  0
   -7.4967   -1.3113  -21.1517 N   0  0  0  0  0  0  0  0  0  0  0  0
   -6.6565   -0.7940  -20.1252 C   0  0  0  0  0  0  0  0  0  0  0  0
   -6.8878   -1.1452  -18.8188 C   0  0  0  0  0  0  0  0  0  0  0  0
   -6.1266   -0.7520  -17.7670 N   0  0  0  0  0  0  0  0  0  0  0  0
   -5.1033    0.0303  -18.0104 C   0  0  0  0  0  0  0  0  0  0  0  0
   -4.7549    0.4854  -19.3154 C   0  0  0  0  0  0  0  0  0  0  0  0
   -3.6646    1.3676  -19.5324 C   0  0  0  0  0  0  0  0  0  0  0  0
   -3.3242    1.7617  -20.7960 C   0  0  0  0  0  0  0  0  0  0  0  0
   -4.0595    1.2874  -21.9031 C   0  0  0  0  0  0  0  0  0  0  0  0
   -5.1409    0.4607  -21.7213 C   0  0  0  0  0  0  0  0  0  0  0  0
   -5.5306    0.0460  -20.4159 C   0  0  0  0  0  0  0  0  0  0  0  0
   -7.2203   -2.5768  -21.8067 C   0  0  0  0  0  0  0  0  0  0  0  0
   -8.5394   -2.8315  -22.5490 C   0  0  2  0  0  0  0  0  0  0  0  0
   -8.4715   -3.8562  -23.6846 C   0  0  0  0  0  0  0  0  0  0  0  0
   -8.2190   -5.2109  -23.2411 N   0  0  0  0  0  0  0  0  0  0  0  0
   -6.9579   -5.7036  -23.1163 C   0  0  0  0  0  0  0  0  0  0  0  0
   -6.7199   -6.9378  -22.4809 C   0  0  0  0  0  0  0  0  0  0  0  0
   -5.4094   -7.3483  -22.4387 C   0  0  0  0  0  0  0  0  0  0  0  0
   -4.3929   -6.6784  -22.9990 N   0  0  0  0  0  0  0  0  0  0  0  0
   -4.7366   -5.5400  -23.5833 C   0  0  0  0  0  0  0  0  0  0  0  0
   -5.9495   -4.9930  -23.6408 N   0  0  0  0  0  0  0  0  0  0  0  0
  -10.5779   -1.3025  -23.0407 C   0  0  0  0  0  0  0  0  0  0  0  0
  -11.4688   -2.2521  -22.5333 C   0  0  0  0  0  0  0  0  0  0  0  0
  -12.8245   -1.9772  -22.4822 C   0  0  0  0  0  0  0  0  0  0  0  0
  -13.8622   -3.1034  -21.6486 Cl  0  0  0  0  0  0  0  0  0  0  0  0
  -13.3629   -0.8037  -23.0093 C   0  0  0  0  0  0  0  0  0  0  0  0
  -12.4986    0.1062  -23.5847 C   0  0  0  0  0  0  0  0  0  0  0  0
  -11.1293   -0.1480  -23.6155 C   0  0  0  0  0  0  0  0  0  0  0  0
  -10.2563    0.8740  -24.2604 C   0  0  0  0  0  0  0  0  0  0  0  0
  -10.6476    2.0170  -24.4850 O   0  0  0  0  0  0  0  0  0  0  0  0
  1  2  1  0
  2  3  1  0
  3  4  2  0
  3  5  1  0
  5  6  1  0
  6  7  1  0
  8  7  1  6
  8  9  1  0
  9 10  2  0
  9 11  1  0
 11 12  1  0
 12 13  2  0
 13 14  1  0
 14 15  2  0
 15 16  1  0
 16 17  2  0
 17 18  1  0
 18 19  2  0
 19 20  1  0
 20 21  2  0
 11 22  1  0
 22 23  1  0
 23 24  1  6
 24 25  1  0
 25 26  1  0
 26 27  2  0
 27 28  1  0
 28 29  2  0
 29 30  1  0
 30 31  2  0
  8 32  1  0
 32 33  2  0
 33 34  1  0
 34 35  1  0
 34 36  2  0
 36 37  1  0
 37 38  2  0
 38 39  1  0
 39 40  2  0
 39  6  1  0
 23  8  1  0
 31 26  1  0
 38 32  1  0
 21 12  1  0
 21 16  1  0
M  END
$$$$

     RDKit          3D

 35 40  0  0  0  0  0  0  0  0999 V2000
   -8.4183   -3.8513  -23.7178 C   0  0  0  0  0  0  0  0  0  0  0  0
   -8.5025   -2.8256  -22.5979 C   0  0  1  0  0  0  0  0  0  0  0  0
   -7.2009   -2.5799  -21.8338 C   0  0  0  0  0  0  0  0  0  0  0  0
   -7.4867   -1.3274  -21.1592 N   0  0  0  0  0  0  0  0  0  0  0  0
   -6.6511   -0.8164  -20.1273 C   0  0  0  0  0  0  0  0  0  0  0  0
   -6.8571   -1.2000  -18.8237 C   0  0  0  0  0  0  0  0  0  0  0  0
   -6.0624   -0.8514  -17.7814 N   0  0  0  0  0  0  0  0  0  0  0  0
   -5.0313   -0.0845  -18.0319 C   0  0  0  0  0  0  0  0  0  0  0  0
   -4.7152    0.4123  -19.3275 C   0  0  0  0  0  0  0  0  0  0  0  0
   -3.6358    1.3105  -19.5318 C   0  0  0  0  0  0  0  0  0  0  0  0
   -3.3309    1.7502  -20.7900 C   0  0  0  0  0  0  0  0  0  0  0  0
   -4.0760    1.2950  -21.9005 C   0  0  0  0  0  0  0  0  0  0  0  0
   -5.1405    0.4456  -21.7254 C   0  0  0  0  0  0  0  0  0  0  0  0
   -5.5142    0.0087  -20.4216 C   0  0  0  0  0  0  0  0  0  0  0  0
   -8.4403   -0.5714  -21.8190 C   0  0  0  0  0  0  0  0  0  0  0  0
   -8.7368    0.5628  -21.5172 O   0  0  0  0  0  0  0  0  0  0  0  0
   -9.0208   -1.4229  -22.9870 C   0  0  1  0  0  0  0  0  0  0  0  0
   -8.4471   -0.8836  -24.3320 C   0  0  0  0  0  0  0  0  0  0  0  0
   -8.9104    0.4724  -24.5856 N   0  0  0  0  0  0  0  0  0  0  0  0
   -8.0710    1.4013  -25.3138 C   0  0  0  0  0  0  0  0  0  0  0  0
   -8.0466    1.2170  -26.8052 C   0  0  0  0  0  0  0  0  0  0  0  0
   -8.6066    2.0295  -27.6784 N   0  0  0  0  0  0  0  0  0  0  0  0
   -8.3410    1.5292  -28.8943 N   0  0  0  0  0  0  0  0  0  0  0  0
   -7.6252    0.4667  -28.8033 N   0  0  0  0  0  0  0  0  0  0  0  0
   -7.4109    0.2475  -27.4928 N   0  0  0  0  0  0  0  0  0  0  0  0
   -6.4636   -0.7689  -27.0785 C   0  0  0  0  0  0  0  0  0  0  0  0
  -10.1589    0.9075  -24.2275 C   0  0  0  0  0  0  0  0  0  0  0  0
  -10.5310    2.0619  -24.3989 O   0  0  0  0  0  0  0  0  0  0  0  0
  -11.0589   -0.1196  -23.6217 C   0  0  0  0  0  0  0  0  0  0  0  0
  -12.4261    0.1469  -23.6132 C   0  0  0  0  0  0  0  0  0  0  0  0
  -13.3137   -0.7951  -23.1382 C   0  0  0  0  0  0  0  0  0  0  0  0
  -12.7964   -2.0036  -22.6864 C   0  0  0  0  0  0  0  0  0  0  0  0
  -13.6548   -2.9254  -22.2148 F   0  0  0  0  0  0  0  0  0  0  0  0
  -11.4436   -2.2905  -22.6859 C   0  0  0  0  0  0  0  0  0  0  0  0
  -10.5340   -1.3089  -23.1037 C   0  0  0  0  0  0  0  0  0  0  0  0
  2  1  1  6
  2  3  1  0
  3  4  1  0
  4  5  1  0
  5  6  2  0
  6  7  1  0
  7  8  2  0
  8  9  1  0
  9 10  2  0
 10 11  1  0
 11 12  2  0
 12 13  1  0
 13 14  2  0
  4 15  1  0
 15 16  2  0
 15 17  1  0
 17 18  1  6
 18 19  1  0
 19 20  1  0
 20 21  1  0
 21 22  2  0
 22 23  1  0
 23 24  2  0
 24 25  1  0
 25 26  1  0
 19 27  1  0
 27 28  2  0
 27 29  1  0
 29 30  2  0
 30 31  1  0
 31 32  2  0
 32 33  1  0
 32 34  1  0
 34 35  2  0
 17  2  1  0
 25 21  1  0
 35 29  1  0
 14  5  1  0
 35 17  1  0
 14  9  1  0
M  END
$$$$

     RDKit          3D

 35 40  0  0  0  0  0  0  0  0999 V2000
    7.0554   -1.3227   24.1882 C   0  0  0  0  0  0  0  0  0  0  0  0
    7.9183   -1.1605   22.9243 C   0  0  1  0  0  0  0  0  0  0  0  0
    7.1346   -1.5531   21.6523 C   0  0  0  0  0  0  0  0  0  0  0  0
    6.8086   -0.2825   21.0460 N   0  0  0  0  0  0  0  0  0  0  0  0
    5.8917   -0.1249   19.9831 C   0  0  0  0  0  0  0  0  0  0  0  0
    6.0932   -0.7573   18.7834 C   0  0  0  0  0  0  0  0  0  0  0  0
    5.2952   -0.6129   17.7022 N   0  0  0  0  0  0  0  0  0  0  0  0
    4.2404    0.1588   17.8341 C   0  0  0  0  0  0  0  0  0  0  0  0
    3.8876    0.8337   19.0367 C   0  0  0  0  0  0  0  0  0  0  0  0
    2.7081    1.6171   19.1472 C   0  0  0  0  0  0  0  0  0  0  0  0
    2.3554    2.1817   20.3435 C   0  0  0  0  0  0  0  0  0  0  0  0
    3.1906    2.0306   21.4741 C   0  0  0  0  0  0  0  0  0  0  0  0
    4.3610    1.3177   21.3820 C   0  0  0  0  0  0  0  0  0  0  0  0
    4.7336    0.6890   20.1596 C   0  0  0  0  0  0  0  0  0  0  0  0
    7.6876    0.7221   21.3827 C   0  0  0  0  0  0  0  0  0  0  0  0
    7.8336    1.7434   20.7480 O   0  0  0  0  0  0  0  0  0  0  0  0
    8.4744    0.2800   22.6383 C   0  0  1  0  0  0  0  0  0  0  0  0
    8.2228    1.2439   23.8364 C   0  0  0  0  0  0  0  0  0  0  0  0
    8.8435    2.5497   23.6663 N   0  0  0  0  0  0  0  0  0  0  0  0
    8.1248    3.7636   24.0587 C   0  0  0  0  0  0  0  0  0  0  0  0
    7.4286    4.4160   22.9009 C   0  0  0  0  0  0  0  0  0  0  0  0
    7.8598    5.4638   22.0864 C   0  0  0  0  0  0  0  0  0  0  0  0
    6.9433    5.6822   21.1508 N   0  0  0  0  0  0  0  0  0  0  0  0
    6.0097    4.7955   21.4094 N   0  0  0  0  0  0  0  0  0  0  0  0
    4.8262    4.7060   20.5844 C   0  0  0  0  0  0  0  0  0  0  0  0
    6.2374    4.0050   22.4463 N   0  0  0  0  0  0  0  0  0  0  0  0
   10.0920    2.7106   23.1314 C   0  0  0  0  0  0  0  0  0  0  0  0
   10.6795    3.7873   23.1408 O   0  0  0  0  0  0  0  0  0  0  0  0
   10.7141    1.4764   22.5469 C   0  0  0  0  0  0  0  0  0  0  0  0
   12.0877    1.4955   22.2949 C   0  0  0  0  0  0  0  0  0  0  0  0
   12.7425    0.3645   21.8432 C   0  0  0  0  0  0  0  0  0  0  0  0
   11.9841   -0.7663   21.5703 C   0  0  0  0  0  0  0  0  0  0  0  0
   12.6034   -1.8798   21.1489 F   0  0  0  0  0  0  0  0  0  0  0  0
   10.6153   -0.7939   21.7512 C   0  0  0  0  0  0  0  0  0  0  0  0
    9.9632    0.3142   22.3128 C   0  0  0  0  0  0  0  0  0  0  0  0
  2  1  1  1
  2  3  1  0
  3  4  1  0
  4  5  1  0
  5  6  2  0
  6  7  1  0
  7  8  2  0
  8  9  1  0
  9 10  2  0
 10 11  1  0
 11 12  2  0
 12 13  1  0
 13 14  2  0
  4 15  1  0
 15 16  2  0
 15 17  1  0
 17 18  1  1
 18 19  1  0
 19 20  1  0
 20 21  1  0
 21 22  1  0
 22 23  2  0
 23 24  1  0
 24 25  1  0
 24 26  1  0
 19 27  1  0
 27 28  2  0
 27 29  1  0
 29 30  2  0
 30 31  1  0
 31 32  2  0
 32 33  1  0
 32 34  1  0
 34 35  2  0
 17  2  1  0
 26 21  2  0
 35 29  1  0
 14  5  1  0
 35 17  1  0
 14  9  1  0
M  END
>  <cnnaffinities>  (68) 
[6.13842, 5.99573, 6.09991, 6.05709]

>  <score>  (68) 
6.13842

>  <index>  (68) 
34

>  <Smiles>  (68) 
C([C@]1(C(N(c2c(nc(c3c(c(c(c(c23)[H])[H])[H])[H])[H])[H])C(=O)[C@]21C(N(C(c1c(nn(C([H])([H])[H])n1)[H])([H])[H])C(=O)c1c(c(c(F)c(c21)[H])[H])[H])([H])[H])([H])[H])[H])([H])([H])[H]

>  <h>  (68) 
<NA>

>  <Training>  (68) 
True

>  <Success>  (68) 
True

>  <enamine_searched>  (68) 
False

>  <enamine_id>  (68) 
nan

$$$$

     RDKit          3D

 31 34  0  0  0  0  0  0  0  0999 V2000
   11.1377    7.9631   21.3929 N   0  0  0  0  0  0  0  0  0  0  0  0
   10.2876    7.5573   22.0625 C   0  0  0  0  0  0  0  0  0  0  0  0
    9.1502    7.0722   22.8662 C   0  0  0  0  0  0  0  0  0  0  0  0
    8.8460    5.5939   22.6675 C   0  0  0  0  0  0  0  0  0  0  0  0
    9.7284    4.6451   23.1890 C   0  0  0  0  0  0  0  0  0  0  0  0
    9.4509    3.2830   23.1162 C   0  0  0  0  0  0  0  0  0  0  0  0
    8.2863    2.8353   22.4859 C   0  0  0  0  0  0  0  0  0  0  0  0
    7.9633    1.4417   22.4483 N   0  0  0  0  0  0  0  0  0  0  0  0
    7.9005    0.6838   23.6951 C   0  0  0  0  0  0  0  0  0  0  0  0
    6.5705    0.7962   24.4143 C   0  0  0  0  0  0  0  0  0  0  0  0
    6.1574    2.0379   24.8963 C   0  0  0  0  0  0  0  0  0  0  0  0
    4.9287    2.1730   25.5321 C   0  0  0  0  0  0  0  0  0  0  0  0
    4.0878    1.0779   25.6998 C   0  0  0  0  0  0  0  0  0  0  0  0
    4.5174   -0.1598   25.2405 C   0  0  0  0  0  0  0  0  0  0  0  0
    3.4855   -1.5494   25.4281 Cl  0  0  0  0  0  0  0  0  0  0  0  0
    5.7495   -0.3135   24.6147 C   0  0  0  0  0  0  0  0  0  0  0  0
    7.7066    0.8886   21.2003 C   0  0  0  0  0  0  0  0  0  0  0  0
    8.1404    1.3919   20.1854 O   0  0  0  0  0  0  0  0  0  0  0  0
    6.8602   -0.3815   21.0991 C   0  0  0  0  0  0  0  0  0  0  0  0
    5.8596   -0.2296   19.9814 C   0  0  0  0  0  0  0  0  0  0  0  0
    6.0788   -0.7946   18.7519 C   0  0  0  0  0  0  0  0  0  0  0  0
    5.2887   -0.6318   17.6577 N   0  0  0  0  0  0  0  0  0  0  0  0
    4.2163    0.1077   17.8067 C   0  0  0  0  0  0  0  0  0  0  0  0
    3.8501    0.7472   19.0244 C   0  0  0  0  0  0  0  0  0  0  0  0
    2.6736    1.5301   19.1410 C   0  0  0  0  0  0  0  0  0  0  0  0
    2.3396    2.1196   20.3261 C   0  0  0  0  0  0  0  0  0  0  0  0
    3.2058    1.9974   21.4375 C   0  0  0  0  0  0  0  0  0  0  0  0
    4.3715    1.2771   21.3448 C   0  0  0  0  0  0  0  0  0  0  0  0
    4.7063    0.5963   20.1425 C   0  0  0  0  0  0  0  0  0  0  0  0
    7.4114    3.7799   21.9347 C   0  0  0  0  0  0  0  0  0  0  0  0
    7.6811    5.1444   22.0471 C   0  0  0  0  0  0  0  0  0  0  0  0
  1  2  3  0
  2  3  1  0
  3  4  1  0
  4  5  2  0
  5  6  1  0
  6  7  2  0
  7  8  1  0
  8  9  1  0
  9 10  1  0
 10 11  2  0
 11 12  1  0
 12 13  2  0
 13 14  1  0
 14 15  1  0
 14 16  2  0
  8 17  1  0
 17 18  2  0
 17 19  1  0
 19 20  1  0
 20 21  2  0
 21 22  1  0
 22 23  2  0
 23 24  1  0
 24 25  2  0
 25 26  1  0
 26 27  2  0
 27 28  1  0
 28 29  2  0
  7 30  1  0
 30 31  2  0
 31  4  1  0
 16 10  1  0
 29 20  1  0
 29 24  1  0
M  END
$$$$

     RDKit          3D

 28 29  0  0  0  0  0  0  0  0999 V2000
   -8.6498   -3.1609  -23.8013 C   0  0  0  0  0  0  0  0  0  0  0  0
   -8.8775   -1.8682  -23.0326 C   0  0  2  0  0  0  0  0  0  0  0  0
   -8.2312   -1.8424  -21.7265 N   0  0  0  0  0  0  0  0  0  0  0  0
   -6.9225   -1.4483  -21.6619 C   0  0  0  0  0  0  0  0  0  0  0  0
   -6.2686   -1.1773  -22.6537 O   0  0  0  0  0  0  0  0  0  0  0  0
   -6.3201   -1.3909  -20.2656 C   0  0  0  0  0  0  0  0  0  0  0  0
   -5.8415   -2.7082  -19.9274 O   0  0  0  0  0  0  0  0  0  0  0  0
   -6.3039   -3.2721  -18.4936 S   0  0  0  0  0  0  0  0  0  0  0  0
   -5.7127   -2.0993  -17.4613 N   0  0  0  0  0  0  0  0  0  0  0  0
   -7.7491   -3.2082  -18.4209 O   0  0  0  0  0  0  0  0  0  0  0  0
   -5.5654   -4.4981  -18.3379 O   0  0  0  0  0  0  0  0  0  0  0  0
  -10.3330   -1.4686  -22.9203 C   0  0  0  0  0  0  0  0  0  0  0  0
  -11.4165   -2.3436  -22.8465 C   0  0  0  0  0  0  0  0  0  0  0  0
  -12.7011   -1.8101  -22.7650 C   0  0  0  0  0  0  0  0  0  0  0  0
  -14.0495   -2.8973  -22.6275 Cl  0  0  0  0  0  0  0  0  0  0  0  0
  -12.9381   -0.4438  -22.8311 C   0  0  0  0  0  0  0  0  0  0  0  0
  -11.8574    0.4295  -22.9749 C   0  0  0  0  0  0  0  0  0  0  0  0
  -12.0298    1.8629  -23.3296 C   0  0  0  0  0  0  0  0  0  0  0  0
  -12.9287    2.7426  -22.7157 C   0  0  0  0  0  0  0  0  0  0  0  0
  -13.0925    4.0404  -23.2073 C   0  0  0  0  0  0  0  0  0  0  0  0
  -12.3426    4.4525  -24.3116 C   0  0  0  0  0  0  0  0  0  0  0  0
  -12.6762    5.9479  -25.2061 S   0  0  0  0  0  0  0  0  0  0  0  0
  -11.1601    6.3906  -25.7627 N   0  0  0  0  0  0  0  0  0  0  0  0
  -13.4296    5.6155  -26.4018 O   0  0  0  0  0  0  0  0  0  0  0  0
  -13.1635    6.9452  -24.2739 O   0  0  0  0  0  0  0  0  0  0  0  0
  -11.3895    3.6148  -24.8717 C   0  0  0  0  0  0  0  0  0  0  0  0
  -11.2446    2.3381  -24.3857 C   0  0  0  0  0  0  0  0  0  0  0  0
  -10.5710   -0.1010  -22.9652 C   0  0  0  0  0  0  0  0  0  0  0  0
  2  1  1  1
  2  3  1  0
  3  4  1  0
  4  5  2  0
  4  6  1  0
  6  7  1  0
  7  8  1  0
  8  9  1  0
  8 10  2  0
  8 11  2  0
  2 12  1  0
 12 13  2  0
 13 14  1  0
 14 15  1  0
 14 16  2  0
 16 17  1  0
 17 18  1  0
 18 19  2  0
 19 20  1  0
 20 21  2  0
 21 22  1  0
 22 23  1  0
 22 24  2  0
 22 25  2  0
 21 26  1  0
 26 27  2  0
 17 28  2  0
 28 12  1  0
 27 18  1  0
M  END
$$$$

     RDKit          3D

 37 41  0  0  0  0  0  0  0  0999 V2000
   -7.0074    3.6337  -22.4912 C   0  0  0  0  0  0  0  0  0  0  0  0
   -7.8007    2.7002  -23.2700 N   0  0  0  0  0  0  0  0  0  0  0  0
   -7.5101    2.5270  -24.5776 C   0  0  0  0  0  0  0  0  0  0  0  0
   -6.7373    3.2369  -25.2039 O   0  0  0  0  0  0  0  0  0  0  0  0
   -8.1570    1.3542  -25.3221 C   0  0  0  0  0  0  0  0  0  0  0  0
   -8.9936    0.4589  -24.5654 N   0  0  0  0  0  0  0  0  0  0  0  0
   -8.5135   -0.8834  -24.2744 C   0  0  0  0  0  0  0  0  0  0  0  0
   -9.0683   -1.4112  -22.9317 C   0  0  2  0  0  0  0  0  0  0  0  0
   -8.4712   -0.5658  -21.7833 C   0  0  0  0  0  0  0  0  0  0  0  0
   -8.7806    0.5773  -21.5017 O   0  0  0  0  0  0  0  0  0  0  0  0
   -7.5038   -1.3009  -21.1408 N   0  0  0  0  0  0  0  0  0  0  0  0
   -6.6566   -0.7913  -20.1201 C   0  0  0  0  0  0  0  0  0  0  0  0
   -6.8857   -1.1448  -18.8135 C   0  0  0  0  0  0  0  0  0  0  0  0
   -6.1246   -0.7482  -17.7653 N   0  0  0  0  0  0  0  0  0  0  0  0
   -5.1016    0.0343  -18.0069 C   0  0  0  0  0  0  0  0  0  0  0  0
   -4.7577    0.4890  -19.3138 C   0  0  0  0  0  0  0  0  0  0  0  0
   -3.6645    1.3680  -19.5330 C   0  0  0  0  0  0  0  0  0  0  0  0
   -3.3226    1.7616  -20.7962 C   0  0  0  0  0  0  0  0  0  0  0  0
   -4.0599    1.2873  -21.9007 C   0  0  0  0  0  0  0  0  0  0  0  0
   -5.1433    0.4605  -21.7181 C   0  0  0  0  0  0  0  0  0  0  0  0
   -5.5314    0.0456  -20.4121 C   0  0  0  0  0  0  0  0  0  0  0  0
   -7.2297   -2.5632  -21.7973 C   0  0  0  0  0  0  0  0  0  0  0  0
   -8.5336   -2.8199  -22.5623 C   0  0  2  0  0  0  0  0  0  0  0  0
   -8.3827   -3.8127  -23.7142 C   0  0  0  0  0  0  0  0  0  0  0  0
   -9.6160   -4.0244  -24.3701 O   0  0  0  0  0  0  0  0  0  0  0  0
  -10.1956   -5.3129  -24.2058 C   0  0  0  0  0  0  0  0  0  0  0  0
  -11.6785   -5.1530  -24.4670 C   0  0  0  0  0  0  0  0  0  0  0  0
   -9.5469   -6.3037  -25.1594 C   0  0  0  0  0  0  0  0  0  0  0  0
  -10.5756   -1.2893  -23.0358 C   0  0  0  0  0  0  0  0  0  0  0  0
  -11.4637   -2.2406  -22.5249 C   0  0  0  0  0  0  0  0  0  0  0  0
  -12.8194   -1.9674  -22.4679 C   0  0  0  0  0  0  0  0  0  0  0  0
  -13.8678   -3.0865  -21.6301 Cl  0  0  0  0  0  0  0  0  0  0  0  0
  -13.3615   -0.8015  -23.0046 C   0  0  0  0  0  0  0  0  0  0  0  0
  -12.5006    0.1082  -23.5872 C   0  0  0  0  0  0  0  0  0  0  0  0
  -11.1307   -0.1429  -23.6193 C   0  0  0  0  0  0  0  0  0  0  0  0
  -10.2601    0.8813  -24.2668 C   0  0  0  0  0  0  0  0  0  0  0  0
  -10.6488    2.0196  -24.4870 O   0  0  0  0  0  0  0  0  0  0  0  0
  1  2  1  0
  2  3  1  0
  3  4  2  0
  3  5  1  0
  5  6  1  0
  6  7  1  0
  8  7  1  6
  8  9  1  0
  9 10  2  0
  9 11  1  0
 11 12  1  0
 12 13  2  0
 13 14  1  0
 14 15  2  0
 15 16  1  0
 16 17  2  0
 17 18  1  0
 18 19  2  0
 19 20  1  0
 20 21  2  0
 11 22  1  0
 22 23  1  0
 23 24  1  6
 24 25  1  0
 25 26  1  0
 26 27  1  0
 26 28  1  0
  8 29  1  0
 29 30  2  0
 30 31  1  0
 31 32  1  0
 31 33  2  0
 33 34  1  0
 34 35  2  0
 35 36  1  0
 36 37  2  0
 36  6  1  0
 23  8  1  0
 35 29  1  0
 21 12  1  0
 21 16  1  0
M  END
$$$$

     RDKit          3D

 23 25  0  0  0  0  0  0  0  0999 V2000
   -8.5398   -0.8928  -20.8433 O   0  0  0  0  0  0  0  0  0  0  0  0
   -7.8987   -1.9209  -20.9994 C   0  0  0  0  0  0  0  0  0  0  0  0
   -6.6138   -2.2091  -20.2141 C   0  0  0  0  0  0  0  0  0  0  0  0
   -6.0365   -1.1302  -19.3049 C   0  0  0  0  0  0  0  0  0  0  0  0
   -6.2770   -1.1302  -17.9232 C   0  0  0  0  0  0  0  0  0  0  0  0
   -5.6026   -0.3654  -17.0449 N   0  0  0  0  0  0  0  0  0  0  0  0
   -4.6312    0.4255  -17.5208 C   0  0  0  0  0  0  0  0  0  0  0  0
   -4.3484    0.5407  -18.8837 C   0  0  0  0  0  0  0  0  0  0  0  0
   -3.3367    1.4016  -19.3364 C   0  0  0  0  0  0  0  0  0  0  0  0
   -3.1008    1.5362  -20.7019 C   0  0  0  0  0  0  0  0  0  0  0  0
   -3.8851    0.8267  -21.6146 C   0  0  0  0  0  0  0  0  0  0  0  0
   -4.8730   -0.0604  -21.1707 C   0  0  0  0  0  0  0  0  0  0  0  0
   -5.0995   -0.2218  -19.7973 C   0  0  0  0  0  0  0  0  0  0  0  0
   -8.2914   -2.8595  -21.9426 N   0  0  0  0  0  0  0  0  0  0  0  0
   -9.7170   -3.0203  -22.2331 C   0  0  0  0  0  0  0  0  0  0  0  0
  -10.1956   -1.8325  -23.0653 C   0  0  0  0  0  0  0  0  0  0  0  0
   -9.4037   -1.8087  -24.3861 C   0  0  0  0  0  0  0  0  0  0  0  0
   -9.9040   -0.6986  -25.3294 C   0  0  0  0  0  0  0  0  0  0  0  0
   -9.1406   -0.6941  -26.4569 F   0  0  0  0  0  0  0  0  0  0  0  0
   -9.8120    0.5013  -24.6925 F   0  0  0  0  0  0  0  0  0  0  0  0
  -11.2019   -0.9346  -25.6813 F   0  0  0  0  0  0  0  0  0  0  0  0
   -7.9065   -1.6536  -24.0196 C   0  0  0  0  0  0  0  0  0  0  0  0
   -7.4414   -2.8212  -23.1312 C   0  0  0  0  0  0  0  0  0  0  0  0
  1  2  2  0
  2  3  1  0
  3  4  1  0
  4  5  2  0
  5  6  1  0
  6  7  2  0
  7  8  1  0
  8  9  2  0
  9 10  1  0
 10 11  2  0
 11 12  1  0
 12 13  2  0
  2 14  1  0
 14 15  1  0
 15 16  1  0
 16 17  1  0
 17 18  1  0
 18 19  1  0
 18 20  1  0
 18 21  1  0
 17 22  1  0
 22 23  1  0
 13  4  1  0
 23 14  1  0
 13  8  1  0
M  END
$$$$

     RDKit          3D

 25 28  0  0  0  0  0  0  0  0999 V2000
   -8.4981    0.7365  -21.4579 O   0  0  0  0  0  0  0  0  0  0  0  0
   -8.5220   -0.4353  -21.7869 C   0  0  0  0  0  0  0  0  0  0  0  0
   -7.4713   -1.4225  -21.2706 C   0  0  0  0  0  0  0  0  0  0  0  0
   -6.6061   -0.8342  -20.1910 C   0  0  0  0  0  0  0  0  0  0  0  0
   -6.9124   -1.0516  -18.8763 C   0  0  0  0  0  0  0  0  0  0  0  0
   -6.2382   -0.5507  -17.8044 N   0  0  0  0  0  0  0  0  0  0  0  0
   -5.1965    0.2052  -18.0717 C   0  0  0  0  0  0  0  0  0  0  0  0
   -4.7578    0.5208  -19.3852 C   0  0  0  0  0  0  0  0  0  0  0  0
   -3.6267    1.3496  -19.6166 C   0  0  0  0  0  0  0  0  0  0  0  0
   -3.2330    1.6442  -20.8942 C   0  0  0  0  0  0  0  0  0  0  0  0
   -3.9497    1.1259  -21.9952 C   0  0  0  0  0  0  0  0  0  0  0  0
   -5.0503    0.3246  -21.7975 C   0  0  0  0  0  0  0  0  0  0  0  0
   -5.4821   -0.0033  -20.4829 C   0  0  0  0  0  0  0  0  0  0  0  0
   -9.5121   -0.9469  -22.5901 N   0  0  0  0  0  0  0  0  0  0  0  0
  -10.6193   -0.0577  -22.9152 C   0  0  0  0  0  0  0  0  0  0  0  0
  -11.9309   -0.8041  -22.7211 C   0  0  0  0  0  0  0  0  0  0  0  0
  -11.9956   -2.1060  -23.5133 C   0  0  0  0  0  0  0  0  0  0  0  0
  -10.7669   -2.9553  -23.1718 C   0  0  0  0  0  0  0  0  0  0  0  0
   -9.4468   -2.1947  -23.3630 C   0  0  1  0  0  0  0  0  0  0  0  0
   -9.0944   -1.9582  -24.8395 C   0  0  0  0  0  0  0  0  0  0  0  0
   -9.7433   -2.6108  -25.8960 C   0  0  0  0  0  0  0  0  0  0  0  0
   -9.3300   -2.4365  -27.2145 C   0  0  0  0  0  0  0  0  0  0  0  0
   -8.3418   -1.5049  -27.5126 C   0  0  0  0  0  0  0  0  0  0  0  0
   -7.7006   -0.8321  -26.4748 C   0  0  0  0  0  0  0  0  0  0  0  0
   -8.0458   -1.0848  -25.1513 C   0  0  0  0  0  0  0  0  0  0  0  0
  1  2  2  0
  2  3  1  0
  3  4  1  0
  4  5  2  0
  5  6  1  0
  6  7  2  0
  7  8  1  0
  8  9  2  0
  9 10  1  0
 10 11  2  0
 11 12  1  0
 12 13  2  0
  2 14  1  0
 14 15  1  0
 15 16  1  0
 16 17  1  0
 17 18  1  0
 18 19  1  0
 19 20  1  6
 20 21  2  0
 21 22  1  0
 22 23  2  0
 23 24  1  0
 24 25  2  0
 13  4  1  0
 19 14  1  0
 25 20  1  0
 13  8  1  0
M  END
>  <cnnaffinities>  (73) 
[5.03309, 5.2529, 5.27416, 5.51038, 5.51253]

>  <score>  (73) 
5.03309

>  <index>  (73) 
36

>  <Smiles>  (73) 
O=C(C(c1c(nc(c2c(c(c(c(c12)[H])[H])[H])[H])[H])[H])([H])[H])N1C(C(C(C([C@]1(c1c(c(c(c(c1[H])[H])[H])[H])[H])[H])([H])[H])([H])[H])([H])[H])([H])[H]

>  <h>  (73) 
<NA>

>  <Training>  (73) 
True

>  <Success>  (73) 
True

>  <enamine_searched>  (73) 
False

>  <enamine_id>  (73) 
nan

$$$$

     RDKit          3D

 35 40  0  0  0  0  0  0  0  0999 V2000
    7.0251   -1.2694   24.2030 C   0  0  0  0  0  0  0  0  0  0  0  0
    7.8924   -1.1487   22.9398 C   0  0  1  0  0  0  0  0  0  0  0  0
    7.1020   -1.5565   21.6763 C   0  0  0  0  0  0  0  0  0  0  0  0
    6.7974   -0.2940   21.0479 N   0  0  0  0  0  0  0  0  0  0  0  0
    5.8853   -0.1322   19.9824 C   0  0  0  0  0  0  0  0  0  0  0  0
    6.0919   -0.7549   18.7782 C   0  0  0  0  0  0  0  0  0  0  0  0
    5.2955   -0.6067   17.6958 N   0  0  0  0  0  0  0  0  0  0  0  0
    4.2385    0.1626   17.8309 C   0  0  0  0  0  0  0  0  0  0  0  0
    3.8870    0.8345   19.0364 C   0  0  0  0  0  0  0  0  0  0  0  0
    2.7084    1.6177   19.1493 C   0  0  0  0  0  0  0  0  0  0  0  0
    2.3554    2.1755   20.3491 C   0  0  0  0  0  0  0  0  0  0  0  0
    3.1895    2.0224   21.4788 C   0  0  0  0  0  0  0  0  0  0  0  0
    4.3661    1.3204   21.3820 C   0  0  0  0  0  0  0  0  0  0  0  0
    4.7315    0.6861   20.1589 C   0  0  0  0  0  0  0  0  0  0  0  0
    7.7004    0.6994   21.3555 C   0  0  0  0  0  0  0  0  0  0  0  0
    7.8709    1.6934   20.6871 O   0  0  0  0  0  0  0  0  0  0  0  0
    8.4680    0.2790   22.6295 C   0  0  1  0  0  0  0  0  0  0  0  0
    8.2211    1.2619   23.8119 C   0  0  0  0  0  0  0  0  0  0  0  0
    8.8627    2.5542   23.6426 N   0  0  0  0  0  0  0  0  0  0  0  0
    8.1703    3.7703   24.0670 C   0  0  0  0  0  0  0  0  0  0  0  0
    7.4666    4.4466   22.9265 C   0  0  0  0  0  0  0  0  0  0  0  0
    7.9353    5.5401   22.1710 C   0  0  0  0  0  0  0  0  0  0  0  0
    6.9704    5.7305   21.2092 C   0  0  0  0  0  0  0  0  0  0  0  0
    6.0127    4.8065   21.4201 N   0  0  0  0  0  0  0  0  0  0  0  0
    4.8002    4.6360   20.6548 C   0  0  0  0  0  0  0  0  0  0  0  0
    6.2950    4.0075   22.4656 N   0  0  0  0  0  0  0  0  0  0  0  0
   10.1147    2.6941   23.1074 C   0  0  0  0  0  0  0  0  0  0  0  0
   10.7218    3.7590   23.1170 O   0  0  0  0  0  0  0  0  0  0  0  0
   10.7226    1.4436   22.5425 C   0  0  0  0  0  0  0  0  0  0  0  0
   12.0990    1.4412   22.2961 C   0  0  0  0  0  0  0  0  0  0  0  0
   12.7373    0.2980   21.8497 C   0  0  0  0  0  0  0  0  0  0  0  0
   11.9582   -0.8213   21.5827 C   0  0  0  0  0  0  0  0  0  0  0  0
   12.5587   -1.9446   21.1501 F   0  0  0  0  0  0  0  0  0  0  0  0
   10.5868   -0.8213   21.7438 C   0  0  0  0  0  0  0  0  0  0  0  0
    9.9569    0.2944   22.3085 C   0  0  0  0  0  0  0  0  0  0  0  0
  2  1  1  1
  2  3  1  0
  3  4  1  0
  4  5  1  0
  5  6  2  0
  6  7  1  0
  7  8  2  0
  8  9  1  0
  9 10  2  0
 10 11  1  0
 11 12  2  0
 12 13  1  0
 13 14  2  0
  4 15  1  0
 15 16  2  0
 15 17  1  0
 17 18  1  1
 18 19  1  0
 19 20  1  0
 20 21  1  0
 21 22  1  0
 22 23  2  0
 23 24  1  0
 24 25  1  0
 24 26  1  0
 19 27  1  0
 27 28  2  0
 27 29  1  0
 29 30  2  0
 30 31  1  0
 31 32  2  0
 32 33  1  0
 32 34  1  0
 34 35  2  0
 17  2  1  0
 26 21  2  0
 35 29  1  0
 14  5  1  0
 35 17  1  0
 14  9  1  0
M  END
>  <cnnaffinities>  (74) 
[6.05399, 6.01444]

>  <score>  (74) 
6.05399

>  <index>  (74) 
36

>  <Smiles>  (74) 
C([C@]1(C(N(c2c(nc(c3c(c(c(c(c23)[H])[H])[H])[H])[H])[H])C(=O)[C@]21C(N(C(c1c(c(n(C([H])([H])[H])n1)[H])[H])([H])[H])C(=O)c1c(c(c(F)c(c21)[H])[H])[H])([H])[H])([H])[H])[H])([H])([H])[H]

>  <h>  (74) 
<NA>

>  <Training>  (74) 
True

>  <Success>  (74) 
True

>  <enamine_searched>  (74) 
False

>  <enamine_id>  (74) 
nan

$$$$

     RDKit          3D

 30 33  0  0  0  0  0  0  0  0999 V2000
   13.7733    0.1245   23.5539 N   0  0  0  0  0  0  0  0  0  0  0  0
   12.6934   -0.2742   23.4087 C   0  0  0  0  0  0  0  0  0  0  0  0
   11.3518   -0.7653   23.2304 C   0  0  0  0  0  0  0  0  0  0  0  0
   11.1320   -2.0020   22.6174 C   0  0  0  0  0  0  0  0  0  0  0  0
    9.8405   -2.4744   22.4465 C   0  0  0  0  0  0  0  0  0  0  0  0
    8.7531   -1.7099   22.8607 C   0  0  0  0  0  0  0  0  0  0  0  0
    7.4338   -2.2088   22.6591 N   0  0  0  0  0  0  0  0  0  0  0  0
    7.0094   -3.3763   23.4307 C   0  0  0  0  0  0  0  0  0  0  0  0
    6.6072   -3.0279   24.8495 C   0  0  0  0  0  0  0  0  0  0  0  0
    7.5867   -2.8925   25.8232 C   0  0  0  0  0  0  0  0  0  0  0  0
    7.2430   -2.5594   27.1236 C   0  0  0  0  0  0  0  0  0  0  0  0
    5.9283   -2.2828   27.4794 C   0  0  0  0  0  0  0  0  0  0  0  0
    4.9467   -2.4395   26.5103 C   0  0  0  0  0  0  0  0  0  0  0  0
    3.2774   -2.1622   26.9397 Cl  0  0  0  0  0  0  0  0  0  0  0  0
    5.2724   -2.8274   25.2118 C   0  0  0  0  0  0  0  0  0  0  0  0
    6.4347   -1.5119   22.0203 C   0  0  0  0  0  0  0  0  0  0  0  0
    5.2652   -1.8046   22.1860 O   0  0  0  0  0  0  0  0  0  0  0  0
    6.8713   -0.4040   21.0531 C   0  0  0  0  0  0  0  0  0  0  0  0
    5.8691   -0.1869   19.9538 C   0  0  0  0  0  0  0  0  0  0  0  0
    6.0448   -0.8062   18.7471 C   0  0  0  0  0  0  0  0  0  0  0  0
    5.2379   -0.6664   17.6658 N   0  0  0  0  0  0  0  0  0  0  0  0
    4.1749    0.0850   17.8077 C   0  0  0  0  0  0  0  0  0  0  0  0
    3.8229    0.7345   19.0204 C   0  0  0  0  0  0  0  0  0  0  0  0
    2.6360    1.4967   19.1463 C   0  0  0  0  0  0  0  0  0  0  0  0
    2.3051    2.0966   20.3282 C   0  0  0  0  0  0  0  0  0  0  0  0
    3.1850    1.9974   21.4288 C   0  0  0  0  0  0  0  0  0  0  0  0
    4.3511    1.2788   21.3272 C   0  0  0  0  0  0  0  0  0  0  0  0
    4.6961    0.6093   20.1252 C   0  0  0  0  0  0  0  0  0  0  0  0
    8.9676   -0.4841   23.4938 C   0  0  0  0  0  0  0  0  0  0  0  0
   10.2598   -0.0155   23.6742 C   0  0  0  0  0  0  0  0  0  0  0  0
  1  2  3  0
  2  3  1  0
  3  4  2  0
  4  5  1  0
  5  6  2  0
  6  7  1  0
  7  8  1  0
  8  9  1  0
  9 10  2  0
 10 11  1  0
 11 12  2  0
 12 13  1  0
 13 14  1  0
 13 15  2  0
  7 16  1  0
 16 17  2  0
 16 18  1  0
 18 19  1  0
 19 20  2  0
 20 21  1  0
 21 22  2  0
 22 23  1  0
 23 24  2  0
 24 25  1  0
 25 26  2  0
 26 27  1  0
 27 28  2  0
  6 29  1  0
 29 30  2  0
 30  3  1  0
 15  9  1  0
 28 19  1  0
 28 23  1  0
M  END
$$$$

     RDKit          3D

 40 45  0  0  0  0  0  0  0  0999 V2000
    4.3585    5.8510   21.5849 C   0  0  0  0  0  0  0  0  0  0  0  0
    4.9467    5.2120   22.7558 N   0  0  0  0  0  0  0  0  0  0  0  0
    6.1113    4.3478   22.4328 C   0  0  0  0  0  0  0  0  0  0  0  0
    6.7395    3.7754   23.7006 C   0  0  0  0  0  0  0  0  0  0  0  0
    7.9230    2.9901   23.3966 N   0  0  0  0  0  0  0  0  0  0  0  0
    7.8555    1.5559   23.5645 C   0  0  0  0  0  0  0  0  0  0  0  0
    8.5702    0.8144   22.4051 C   0  0  2  0  0  0  0  0  0  0  0  0
    7.7889    1.0960   21.1047 C   0  0  0  0  0  0  0  0  0  0  0  0
    7.7645    2.1234   20.4604 O   0  0  0  0  0  0  0  0  0  0  0  0
    7.0546   -0.0283   20.7781 N   0  0  0  0  0  0  0  0  0  0  0  0
    6.0277    0.0052   19.8075 C   0  0  0  0  0  0  0  0  0  0  0  0
    6.1793   -0.6876   18.6349 C   0  0  0  0  0  0  0  0  0  0  0  0
    5.3199   -0.6084   17.5922 N   0  0  0  0  0  0  0  0  0  0  0  0
    4.2563    0.1477   17.7489 C   0  0  0  0  0  0  0  0  0  0  0  0
    3.9351    0.8469   18.9493 C   0  0  0  0  0  0  0  0  0  0  0  0
    2.7603    1.6308   19.0889 C   0  0  0  0  0  0  0  0  0  0  0  0
    2.4514    2.2227   20.2824 C   0  0  0  0  0  0  0  0  0  0  0  0
    3.3019    2.0596   21.3960 C   0  0  0  0  0  0  0  0  0  0  0  0
    4.4535    1.3205   21.2856 C   0  0  0  0  0  0  0  0  0  0  0  0
    4.8212    0.7343   20.0402 C   0  0  0  0  0  0  0  0  0  0  0  0
    7.1890   -1.1236   21.7144 C   0  0  0  0  0  0  0  0  0  0  0  0
    8.4348   -0.7132   22.5080 C   0  0  2  0  0  0  0  0  0  0  0  0
    8.4565   -1.2142   23.9297 C   0  0  0  0  0  0  0  0  0  0  0  0
    8.2662   -2.6031   23.9206 O   0  0  0  0  0  0  0  0  0  0  0  0
    8.3727   -3.1272   25.2171 C   0  0  0  0  0  0  0  0  0  0  0  0
    9.8004   -3.0277   25.7231 C   0  0  0  0  0  0  0  0  0  0  0  0
   10.8078   -3.7097   24.7540 C   0  0  0  0  0  0  0  0  0  0  0  0
   10.9601   -5.0898   25.9115 S   0  0  0  0  0  0  0  0  0  0  0  0
   12.3043   -5.2079   26.4357 O   0  0  0  0  0  0  0  0  0  0  0  0
   10.2035   -6.2306   25.4147 O   0  0  0  0  0  0  0  0  0  0  0  0
    9.9962   -3.9514   26.9342 C   0  0  0  0  0  0  0  0  0  0  0  0
    9.9896    1.3371   22.3798 C   0  0  0  0  0  0  0  0  0  0  0  0
   11.1274    0.5338   22.2208 C   0  0  0  0  0  0  0  0  0  0  0  0
   12.3612    1.1298   22.0253 C   0  0  0  0  0  0  0  0  0  0  0  0
   13.7293    0.0911   21.7562 Cl  0  0  0  0  0  0  0  0  0  0  0  0
   12.5275    2.5144   22.0450 C   0  0  0  0  0  0  0  0  0  0  0  0
   11.4268    3.2987   22.3342 C   0  0  0  0  0  0  0  0  0  0  0  0
   10.1763    2.7175   22.5306 C   0  0  0  0  0  0  0  0  0  0  0  0
    9.0510    3.6210   22.9598 C   0  0  0  0  0  0  0  0  0  0  0  0
    9.1525    4.8412   22.9221 O   0  0  0  0  0  0  0  0  0  0  0  0
  1  2  1  0
  2  3  1  0
  3  4  1  0
  4  5  1  0
  5  6  1  0
  7  6  1  1
  7  8  1  0
  8  9  2  0
  8 10  1  0
 10 11  1  0
 11 12  2  0
 12 13  1  0
 13 14  2  0
 14 15  1  0
 15 16  2  0
 16 17  1  0
 17 18  2  0
 18 19  1  0
 19 20  2  0
 10 21  1  0
 21 22  1  0
 22 23  1  1
 23 24  1  0
 24 25  1  0
 25 26  1  0
 26 27  1  0
 27 28  1  0
 28 29  2  0
 28 30  2  0
 28 31  1  0
  7 32  1  0
 32 33  2  0
 33 34  1  0
 34 35  1  0
 34 36  2  0
 36 37  1  0
 37 38  2  0
 38 39  1  0
 39 40  2  0
 39  5  1  0
 22  7  1  0
 31 26  1  0
 38 32  1  0
 20 11  1  0
 20 15  1  0
M  CHG  1   2   1
M  END
$$$$

     RDKit          3D

 32 36  0  0  0  0  0  0  0  0999 V2000
   -7.0054    3.6334  -22.4922 C   0  0  0  0  0  0  0  0  0  0  0  0
   -7.7933    2.6995  -23.2704 N   0  0  0  0  0  0  0  0  0  0  0  0
   -7.5113    2.5269  -24.5789 C   0  0  0  0  0  0  0  0  0  0  0  0
   -6.7403    3.2372  -25.2106 O   0  0  0  0  0  0  0  0  0  0  0  0
   -8.1544    1.3501  -25.3174 C   0  0  0  0  0  0  0  0  0  0  0  0
   -8.9878    0.4561  -24.5549 N   0  0  0  0  0  0  0  0  0  0  0  0
   -8.5136   -0.8903  -24.2703 C   0  0  0  0  0  0  0  0  0  0  0  0
   -9.0739   -1.4231  -22.9309 C   0  0  2  0  0  0  0  0  0  0  0  0
   -8.4780   -0.5719  -21.7827 C   0  0  0  0  0  0  0  0  0  0  0  0
   -8.7902    0.5688  -21.5005 O   0  0  0  0  0  0  0  0  0  0  0  0
   -7.5045   -1.3033  -21.1434 N   0  0  0  0  0  0  0  0  0  0  0  0
   -6.6608   -0.7881  -20.1216 C   0  0  0  0  0  0  0  0  0  0  0  0
   -6.8883   -1.1414  -18.8148 C   0  0  0  0  0  0  0  0  0  0  0  0
   -6.1269   -0.7451  -17.7662 N   0  0  0  0  0  0  0  0  0  0  0  0
   -5.1035    0.0375  -18.0062 C   0  0  0  0  0  0  0  0  0  0  0  0
   -4.7594    0.4915  -19.3132 C   0  0  0  0  0  0  0  0  0  0  0  0
   -3.6656    1.3697  -19.5328 C   0  0  0  0  0  0  0  0  0  0  0  0
   -3.3227    1.7620  -20.7971 C   0  0  0  0  0  0  0  0  0  0  0  0
   -4.0591    1.2865  -21.9024 C   0  0  0  0  0  0  0  0  0  0  0  0
   -5.1432    0.4604  -21.7184 C   0  0  0  0  0  0  0  0  0  0  0  0
   -5.5330    0.0474  -20.4119 C   0  0  0  0  0  0  0  0  0  0  0  0
   -7.2233   -2.5626  -21.8036 C   0  0  0  0  0  0  0  0  0  0  0  0
   -8.5303   -2.8307  -22.5594 C   0  0  2  0  0  0  0  0  0  0  0  0
   -8.4200   -3.8203  -23.7126 C   0  0  0  0  0  0  0  0  0  0  0  0
  -10.5859   -1.2939  -23.0366 C   0  0  0  0  0  0  0  0  0  0  0  0
  -11.4867   -2.2294  -22.5210 C   0  0  0  0  0  0  0  0  0  0  0  0
  -12.8469   -1.9614  -22.4614 C   0  0  0  0  0  0  0  0  0  0  0  0
  -13.3658   -0.7862  -23.0074 C   0  0  0  0  0  0  0  0  0  0  0  0
  -12.5018    0.1212  -23.5926 C   0  0  0  0  0  0  0  0  0  0  0  0
  -11.1324   -0.1415  -23.6197 C   0  0  0  0  0  0  0  0  0  0  0  0
  -10.2551    0.8807  -24.2649 C   0  0  0  0  0  0  0  0  0  0  0  0
  -10.6386    2.0184  -24.4909 O   0  0  0  0  0  0  0  0  0  0  0  0
  1  2  1  0
  2  3  1  0
  3  4  2  0
  3  5  1  0
  5  6  1  0
  6  7  1  0
  8  7  1  6
  8  9  1  0
  9 10  2  0
  9 11  1  0
 11 12  1  0
 12 13  2  0
 13 14  1  0
 14 15  2  0
 15 16  1  0
 16 17  2  0
 17 18  1  0
 18 19  2  0
 19 20  1  0
 20 21  2  0
 11 22  1  0
 22 23  1  0
 23 24  1  6
  8 25  1  0
 25 26  2  0
 26 27  1  0
 27 28  2  0
 28 29  1  0
 29 30  2  0
 30 31  1  0
 31 32  2  0
 31  6  1  0
 23  8  1  0
 30 25  1  0
 21 12  1  0
 21 16  1  0
M  END
$$$$

     RDKit          3D

 22 24  0  0  0  0  0  0  0  0999 V2000
   -8.1633   -4.7066  -26.5354 C   0  0  0  0  0  0  0  0  0  0  0  0
   -8.6597   -4.9679  -25.1129 C   0  0  1  0  0  0  0  0  0  0  0  0
   -7.6025   -5.5337  -24.1726 C   0  0  0  0  0  0  0  0  0  0  0  0
   -6.6322   -4.5304  -23.5519 C   0  0  1  0  0  0  0  0  0  0  0  0
   -5.4548   -4.1814  -24.4614 C   0  0  0  0  0  0  0  0  0  0  0  0
   -7.3284   -3.3427  -23.0086 N   0  0  0  0  0  0  0  0  0  0  0  0
   -6.7260   -2.7049  -21.9383 C   0  0  0  0  0  0  0  0  0  0  0  0
   -5.6818   -3.1192  -21.4562 O   0  0  0  0  0  0  0  0  0  0  0  0
   -7.4074   -1.4700  -21.2819 C   0  0  0  0  0  0  0  0  0  0  0  0
   -6.5798   -0.8338  -20.1851 C   0  0  0  0  0  0  0  0  0  0  0  0
   -6.8723   -1.0479  -18.8622 C   0  0  0  0  0  0  0  0  0  0  0  0
   -6.1948   -0.5429  -17.7926 N   0  0  0  0  0  0  0  0  0  0  0  0
   -5.1612    0.2203  -18.0614 C   0  0  0  0  0  0  0  0  0  0  0  0
   -4.7231    0.5286  -19.3793 C   0  0  0  0  0  0  0  0  0  0  0  0
   -3.5947    1.3571  -19.6217 C   0  0  0  0  0  0  0  0  0  0  0  0
   -3.1921    1.6349  -20.9006 C   0  0  0  0  0  0  0  0  0  0  0  0
   -3.9046    1.0919  -21.9941 C   0  0  0  0  0  0  0  0  0  0  0  0
   -5.0009    0.2901  -21.7856 C   0  0  0  0  0  0  0  0  0  0  0  0
   -5.4460   -0.0136  -20.4726 C   0  0  0  0  0  0  0  0  0  0  0  0
   -8.4101   -2.7241  -23.7917 C   0  0  1  0  0  0  0  0  0  0  0  0
   -7.9411   -1.6660  -24.8005 C   0  0  0  0  0  0  0  0  0  0  0  0
   -9.3300   -3.7829  -24.4198 C   0  0  0  0  0  0  0  0  0  0  0  0
  2  1  1  6
  2  3  1  0
  3  4  1  0
  4  5  1  6
  4  6  1  0
  6  7  1  0
  7  8  2  0
  7  9  1  0
  9 10  1  0
 10 11  2  0
 11 12  1  0
 12 13  2  0
 13 14  1  0
 14 15  2  0
 15 16  1  0
 16 17  2  0
 17 18  1  0
 18 19  2  0
  6 20  1  0
 20 21  1  6
 20 22  1  0
 22  2  1  0
 19 10  1  0
 19 14  1  0
M  END
>  <cnnaffinities>  (78) 
[5.17551]

>  <score>  (78) 
5.17551

>  <index>  (78) 
38

>  <Smiles>  (78) 
C([C@]1(C([C@@](C([H])([H])[H])(N(C(=O)C(c2c(nc(c3c(c(c(c(c23)[H])[H])[H])[H])[H])[H])([H])[H])[C@@](C([H])([H])[H])(C1([H])[H])[H])[H])([H])[H])[H])([H])([H])[H]

>  <h>  (78) 
<NA>

>  <Training>  (78) 
True

>  <Success>  (78) 
True

>  <enamine_searched>  (78) 
False

>  <enamine_id>  (78) 
nan

$$$$

     RDKit          3D

 25 29  0  0  0  0  0  0  0  0999 V2000
   -8.0152    1.5620  -24.6844 C   0  0  0  0  0  0  0  0  0  0  0  0
   -7.1041    0.3795  -24.9101 C   0  0  0  0  0  0  0  0  0  0  0  0
   -5.9019    0.5035  -25.0947 O   0  0  0  0  0  0  0  0  0  0  0  0
   -7.6880   -0.8514  -24.9079 N   0  0  0  0  0  0  0  0  0  0  0  0
   -6.8323   -2.0596  -24.8769 C   0  0  0  0  0  0  0  0  0  0  0  0
   -7.8227   -3.1061  -24.3216 C   0  0  2  0  0  0  0  0  0  0  0  0
   -9.1416   -2.6195  -24.9521 C   0  0  0  0  0  0  0  0  0  0  0  0
   -9.0117   -1.2121  -24.3299 C   0  0  1  0  0  0  0  0  0  0  0  0
   -8.8064   -1.5776  -22.9217 C   0  0  0  0  0  0  0  0  0  0  0  0
   -8.5670   -0.8587  -21.7080 C   0  0  0  0  0  0  0  0  0  0  0  0
   -9.0210    0.1700  -21.2641 O   0  0  0  0  0  0  0  0  0  0  0  0
   -7.5748   -1.6519  -21.0631 N   0  0  0  0  0  0  0  0  0  0  0  0
   -6.7003   -1.1178  -20.0810 C   0  0  0  0  0  0  0  0  0  0  0  0
   -6.9672   -1.3698  -18.7649 C   0  0  0  0  0  0  0  0  0  0  0  0
   -6.2434   -0.8782  -17.7300 N   0  0  0  0  0  0  0  0  0  0  0  0
   -5.2489   -0.0739  -18.0166 C   0  0  0  0  0  0  0  0  0  0  0  0
   -4.9162    0.3338  -19.3455 C   0  0  0  0  0  0  0  0  0  0  0  0
   -3.9186    1.3125  -19.6047 C   0  0  0  0  0  0  0  0  0  0  0  0
   -3.5846    1.6477  -20.8862 C   0  0  0  0  0  0  0  0  0  0  0  0
   -4.2203    1.0031  -21.9739 C   0  0  0  0  0  0  0  0  0  0  0  0
   -5.2164    0.0826  -21.7539 C   0  0  0  0  0  0  0  0  0  0  0  0
   -5.6254   -0.2369  -20.4245 C   0  0  0  0  0  0  0  0  0  0  0  0
   -7.2399   -2.7897  -21.8157 C   0  0  0  0  0  0  0  0  0  0  0  0
   -6.3927   -3.6010  -21.5414 O   0  0  0  0  0  0  0  0  0  0  0  0
   -8.1005   -2.7534  -22.9049 N   0  0  0  0  0  0  0  0  0  0  0  0
  1  2  1  0
  2  3  2  0
  2  4  1  0
  4  5  1  0
  6  5  1  6
  6  7  1  0
  7  8  1  0
  8  9  1  0
  9 10  2  0
 10 11  1  0
 10 12  1  0
 12 13  1  0
 13 14  2  0
 14 15  1  0
 15 16  2  0
 16 17  1  0
 17 18  2  0
 18 19  1  0
 19 20  2  0
 20 21  1  0
 21 22  2  0
 12 23  1  0
 23 24  2  0
 23 25  1  0
  8  4  1  6
 25  9  1  0
 25  6  1  0
 22 13  1  0
 22 17  1  0
M  CHG  1  11  -1
M  END
$$$$

     RDKit          3D

 20 22  0  0  0  0  0  0  0  0999 V2000
   -9.9924    1.5512  -24.6244 C   0  0  0  0  0  0  0  0  0  0  0  0
   -9.7014    0.0531  -24.7164 C   0  0  0  0  0  0  0  0  0  0  0  0
  -10.4813   -0.7066  -23.6261 C   0  0  0  0  0  0  0  0  0  0  0  0
   -9.9153   -2.1041  -23.3547 C   0  0  0  0  0  0  0  0  0  0  0  0
   -8.4611   -2.0083  -23.1406 N   0  0  0  0  0  0  0  0  0  0  0  0
   -8.1599   -1.3156  -21.9713 C   0  0  0  0  0  0  0  0  0  0  0  0
   -8.9656   -1.2932  -21.0531 O   0  0  0  0  0  0  0  0  0  0  0  0
   -6.8939   -0.4766  -21.8775 C   0  0  0  0  0  0  0  0  0  0  0  0
   -6.1071   -0.4874  -20.5939 C   0  0  0  0  0  0  0  0  0  0  0  0
   -6.5966   -0.9122  -19.3872 C   0  0  0  0  0  0  0  0  0  0  0  0
   -5.9494   -0.7941  -18.1971 N   0  0  0  0  0  0  0  0  0  0  0  0
   -4.7883   -0.1883  -18.1954 C   0  0  0  0  0  0  0  0  0  0  0  0
   -4.1451    0.2872  -19.3711 C   0  0  0  0  0  0  0  0  0  0  0  0
   -2.8838    0.9336  -19.3373 C   0  0  0  0  0  0  0  0  0  0  0  0
   -2.2840    1.3553  -20.4937 C   0  0  0  0  0  0  0  0  0  0  0  0
   -2.8954    1.0902  -21.7400 C   0  0  0  0  0  0  0  0  0  0  0  0
   -4.1014    0.4384  -21.8022 C   0  0  0  0  0  0  0  0  0  0  0  0
   -4.7920    0.0774  -20.6154 C   0  0  0  0  0  0  0  0  0  0  0  0
   -7.8087   -1.6095  -24.3888 C   0  0  0  0  0  0  0  0  0  0  0  0
   -8.1761   -0.1678  -24.7260 C   0  0  0  0  0  0  0  0  0  0  0  0
  1  2  1  0
  2  3  1  0
  3  4  1  0
  4  5  1  0
  5  6  1  0
  6  7  2  0
  6  8  1  0
  8  9  1  0
  9 10  2  0
 10 11  1  0
 11 12  2  0
 12 13  1  0
 13 14  2  0
 14 15  1  0
 15 16  2  0
 16 17  1  0
 17 18  2  0
  5 19  1  0
 19 20  1  0
 20  2  1  0
 18  9  1  0
 18 13  1  0
M  END
$$$$

     RDKit          3D

 39 43  0  0  0  0  0  0  0  0999 V2000
   -7.0192    3.6324  -22.4815 C   0  0  0  0  0  0  0  0  0  0  0  0
   -7.7843    2.6799  -23.2609 N   0  0  0  0  0  0  0  0  0  0  0  0
   -7.4940    2.5202  -24.5694 C   0  0  0  0  0  0  0  0  0  0  0  0
   -6.7241    3.2489  -25.1889 O   0  0  0  0  0  0  0  0  0  0  0  0
   -8.1628    1.3642  -25.3185 C   0  0  0  0  0  0  0  0  0  0  0  0
   -8.9888    0.4752  -24.5421 N   0  0  0  0  0  0  0  0  0  0  0  0
   -8.5306   -0.8794  -24.2836 C   0  0  0  0  0  0  0  0  0  0  0  0
   -9.0832   -1.4203  -22.9404 C   0  0  2  0  0  0  0  0  0  0  0  0
   -8.4767   -0.5824  -21.7864 C   0  0  0  0  0  0  0  0  0  0  0  0
   -8.7579    0.5680  -21.5130 O   0  0  0  0  0  0  0  0  0  0  0  0
   -7.5190   -1.3272  -21.1408 N   0  0  0  0  0  0  0  0  0  0  0  0
   -6.6659   -0.7989  -20.1253 C   0  0  0  0  0  0  0  0  0  0  0  0
   -6.8894   -1.1532  -18.8175 C   0  0  0  0  0  0  0  0  0  0  0  0
   -6.1196   -0.7694  -17.7687 N   0  0  0  0  0  0  0  0  0  0  0  0
   -5.0940    0.0068  -18.0183 C   0  0  0  0  0  0  0  0  0  0  0  0
   -4.7492    0.4662  -19.3215 C   0  0  0  0  0  0  0  0  0  0  0  0
   -3.6648    1.3596  -19.5308 C   0  0  0  0  0  0  0  0  0  0  0  0
   -3.3313    1.7577  -20.7946 C   0  0  0  0  0  0  0  0  0  0  0  0
   -4.0605    1.2830  -21.9076 C   0  0  0  0  0  0  0  0  0  0  0  0
   -5.1417    0.4535  -21.7274 C   0  0  0  0  0  0  0  0  0  0  0  0
   -5.5351    0.0375  -20.4228 C   0  0  0  0  0  0  0  0  0  0  0  0
   -7.2433   -2.5794  -21.8173 C   0  0  0  0  0  0  0  0  0  0  0  0
   -8.5495   -2.8330  -22.5825 C   0  0  2  0  0  0  0  0  0  0  0  0
   -8.3353   -3.8320  -23.7085 C   0  0  0  0  0  0  0  0  0  0  0  0
   -9.8382   -4.4459  -24.4738 S   0  0  0  0  0  0  0  0  0  0  0  0
  -10.5928   -5.1712  -23.4606 O   0  0  0  0  0  0  0  0  0  0  0  0
  -10.4810   -3.4167  -25.2697 O   0  0  0  0  0  0  0  0  0  0  0  0
   -9.2367   -5.5459  -25.5622 N   0  0  0  0  0  0  0  0  0  0  0  0
   -8.6533   -5.0242  -26.7856 C   0  0  0  0  0  0  0  0  0  0  0  0
   -8.6499   -6.7660  -25.0448 C   0  0  0  0  0  0  0  0  0  0  0  0
  -10.5912   -1.2808  -23.0220 C   0  0  0  0  0  0  0  0  0  0  0  0
  -11.4830   -2.2326  -22.5186 C   0  0  0  0  0  0  0  0  0  0  0  0
  -12.8338   -1.9448  -22.5025 C   0  0  0  0  0  0  0  0  0  0  0  0
  -13.6624   -2.8319  -21.9252 F   0  0  0  0  0  0  0  0  0  0  0  0
  -13.3776   -0.7756  -23.0215 C   0  0  0  0  0  0  0  0  0  0  0  0
  -12.5054    0.1344  -23.5813 C   0  0  0  0  0  0  0  0  0  0  0  0
  -11.1366   -0.1241  -23.6014 C   0  0  0  0  0  0  0  0  0  0  0  0
  -10.2560    0.8933  -24.2498 C   0  0  0  0  0  0  0  0  0  0  0  0
  -10.6377    2.0321  -24.4864 O   0  0  0  0  0  0  0  0  0  0  0  0
  1  2  1  0
  2  3  1  0
  3  4  2  0
  3  5  1  0
  5  6  1  0
  6  7  1  0
  8  7  1  6
  8  9  1  0
  9 10  2  0
  9 11  1  0
 11 12  1  0
 12 13  2  0
 13 14  1  0
 14 15  2  0
 15 16  1  0
 16 17  2  0
 17 18  1  0
 18 19  2  0
 19 20  1  0
 20 21  2  0
 11 22  1  0
 22 23  1  0
 23 24  1  6
 24 25  1  0
 25 26  2  0
 25 27  2  0
 25 28  1  0
 28 29  1  0
 28 30  1  0
  8 31  1  0
 31 32  2  0
 32 33  1  0
 33 34  1  0
 33 35  2  0
 35 36  1  0
 36 37  2  0
 37 38  1  0
 38 39  2  0
 38  6  1  0
 23  8  1  0
 37 31  1  0
 21 12  1  0
 21 16  1  0
M  END
$$$$

     RDKit          3D

 26 29  0  0  0  0  0  0  0  0999 V2000
   -4.4109    0.2181  -22.5064 C   0  0  0  0  0  0  0  0  0  0  0  0
   -4.0795    0.3755  -21.1159 N   0  0  0  0  0  0  0  0  0  0  0  0
   -2.9916    1.0804  -20.7656 N   0  0  0  0  0  0  0  0  0  0  0  0
   -2.9317    1.0461  -19.4541 C   0  0  0  0  0  0  0  0  0  0  0  0
   -4.0033    0.2801  -18.9092 C   0  0  0  0  0  0  0  0  0  0  0  0
   -4.4554   -0.1135  -17.6305 C   0  0  0  0  0  0  0  0  0  0  0  0
   -5.5713   -0.8083  -17.4976 N   0  0  0  0  0  0  0  0  0  0  0  0
   -6.2662   -1.1744  -18.5974 C   0  0  0  0  0  0  0  0  0  0  0  0
   -5.9157   -0.9027  -19.9133 C   0  0  0  0  0  0  0  0  0  0  0  0
   -6.5684   -1.5600  -21.0029 N   0  0  0  0  0  0  0  0  0  0  0  0
   -7.7124   -1.1703  -21.6770 C   0  0  0  0  0  0  0  0  0  0  0  0
   -8.3292   -0.1542  -21.4290 O   0  0  0  0  0  0  0  0  0  0  0  0
   -8.0443   -2.0665  -22.8907 C   0  0  2  0  0  0  0  0  0  0  0  0
   -7.0892   -1.5713  -24.0194 C   0  0  0  0  0  0  0  0  0  0  0  0
   -7.6895   -1.5186  -25.3429 N   0  0  0  0  0  0  0  0  0  0  0  0
   -8.9494   -0.4456  -25.4573 S   0  0  0  0  0  0  0  0  0  0  0  0
   -8.4320    0.8745  -25.1405 O   0  0  0  0  0  0  0  0  0  0  0  0
   -9.6098   -0.7344  -26.7157 O   0  0  0  0  0  0  0  0  0  0  0  0
  -10.0001   -1.0379  -24.1505 C   0  0  0  0  0  0  0  0  0  0  0  0
  -11.3434   -0.6769  -24.1756 C   0  0  0  0  0  0  0  0  0  0  0  0
  -12.2602   -1.4272  -23.4513 C   0  0  0  0  0  0  0  0  0  0  0  0
  -11.8074   -2.5391  -22.7472 C   0  0  0  0  0  0  0  0  0  0  0  0
  -12.9431   -3.6029  -21.9740 Cl  0  0  0  0  0  0  0  0  0  0  0  0
  -10.4512   -2.8150  -22.6213 C   0  0  0  0  0  0  0  0  0  0  0  0
   -9.5167   -1.9881  -23.2475 C   0  0  0  0  0  0  0  0  0  0  0  0
   -4.7403   -0.1245  -20.0391 C   0  0  0  0  0  0  0  0  0  0  0  0
  1  2  1  0
  2  3  1  0
  3  4  2  0
  4  5  1  0
  5  6  2  0
  6  7  1  0
  7  8  2  0
  8  9  1  0
  9 10  1  0
 10 11  1  0
 11 12  2  0
 13 11  1  1
 13 14  1  0
 14 15  1  0
 15 16  1  0
 16 17  2  0
 16 18  2  0
 16 19  1  0
 19 20  2  0
 20 21  1  0
 21 22  2  0
 22 23  1  0
 22 24  1  0
 24 25  2  0
  9 26  2  0
 26  2  1  0
 26  5  1  0
 25 13  1  0
 25 19  1  0
M  END
$$$$

     RDKit          3D

 35 39  0  0  0  0  0  0  0  0999 V2000
    8.8533   -2.0570   26.1991 C   0  0  0  0  0  0  0  0  0  0  0  0
    9.1388   -1.9704   24.7146 C   0  0  0  0  0  0  0  0  0  0  0  0
    7.9405   -1.5743   24.0677 O   0  0  0  0  0  0  0  0  0  0  0  0
    8.1090   -1.1817   22.7317 C   0  0  1  0  0  0  0  0  0  0  0  0
    6.7982   -1.3509   21.9689 C   0  0  0  0  0  0  0  0  0  0  0  0
    6.8591   -0.2988   20.9813 N   0  0  0  0  0  0  0  0  0  0  0  0
    5.8985   -0.1412   19.9521 C   0  0  0  0  0  0  0  0  0  0  0  0
    6.0846   -0.7752   18.7528 C   0  0  0  0  0  0  0  0  0  0  0  0
    5.2669   -0.6453   17.6812 N   0  0  0  0  0  0  0  0  0  0  0  0
    4.2071    0.1146   17.8291 C   0  0  0  0  0  0  0  0  0  0  0  0
    3.8660    0.7868   19.0385 C   0  0  0  0  0  0  0  0  0  0  0  0
    2.6883    1.5704   19.1610 C   0  0  0  0  0  0  0  0  0  0  0  0
    2.3703    2.1672   20.3500 C   0  0  0  0  0  0  0  0  0  0  0  0
    3.2373    2.0538   21.4595 C   0  0  0  0  0  0  0  0  0  0  0  0
    4.3988    1.3291   21.3580 C   0  0  0  0  0  0  0  0  0  0  0  0
    4.7345    0.6617   20.1451 C   0  0  0  0  0  0  0  0  0  0  0  0
    7.7905    0.6831   21.2413 C   0  0  0  0  0  0  0  0  0  0  0  0
    7.9342    1.6824   20.5699 O   0  0  0  0  0  0  0  0  0  0  0  0
    8.5601    0.2937   22.5211 C   0  0  1  0  0  0  0  0  0  0  0  0
    8.1141    1.2012   23.6981 C   0  0  0  0  0  0  0  0  0  0  0  0
    8.6327    2.5581   23.5556 N   0  0  0  0  0  0  0  0  0  0  0  0
    7.8178    3.6563   24.0374 C   0  0  0  0  0  0  0  0  0  0  0  0
    6.6947    3.9758   23.0435 C   0  0  0  0  0  0  0  0  0  0  0  0
    5.5327    3.6736   23.2706 O   0  0  0  0  0  0  0  0  0  0  0  0
    7.0715    4.6249   21.9042 N   0  0  0  0  0  0  0  0  0  0  0  0
    6.0313    4.9755   20.9433 C   0  0  0  0  0  0  0  0  0  0  0  0
    9.9410    2.8057   23.2370 C   0  0  0  0  0  0  0  0  0  0  0  0
   10.4637    3.9012   23.4014 O   0  0  0  0  0  0  0  0  0  0  0  0
   10.7045    1.6515   22.6635 C   0  0  0  0  0  0  0  0  0  0  0  0
   12.0801    1.7987   22.4742 C   0  0  0  0  0  0  0  0  0  0  0  0
   12.8264    0.7641   21.9435 C   0  0  0  0  0  0  0  0  0  0  0  0
   12.1741   -0.4128   21.5843 C   0  0  0  0  0  0  0  0  0  0  0  0
   13.1069   -1.7243   20.9332 Cl  0  0  0  0  0  0  0  0  0  0  0  0
   10.8045   -0.5450   21.6977 C   0  0  0  0  0  0  0  0  0  0  0  0
   10.0537    0.4602   22.3178 C   0  0  0  0  0  0  0  0  0  0  0  0
  1  2  1  0
  2  3  1  0
  4  3  1  1
  4  5  1  0
  5  6  1  0
  6  7  1  0
  7  8  2  0
  8  9  1  0
  9 10  2  0
 10 11  1  0
 11 12  2  0
 12 13  1  0
 13 14  2  0
 14 15  1  0
 15 16  2  0
  6 17  1  0
 17 18  2  0
 17 19  1  0
 19 20  1  1
 20 21  1  0
 21 22  1  0
 22 23  1  0
 23 24  2  0
 23 25  1  0
 25 26  1  0
 21 27  1  0
 27 28  2  0
 27 29  1  0
 29 30  2  0
 30 31  1  0
 31 32  2  0
 32 33  1  0
 32 34  1  0
 34 35  2  0
 19  4  1  0
 35 29  1  0
 16  7  1  0
 35 19  1  0
 16 11  1  0
M  END
>  <cnnaffinities>  (83) 
[6.25716, 6.40616]

>  <score>  (83) 
6.25716

>  <index>  (83) 
39

>  <Smiles>  (83) 
C(C(O[C@]1(C(N(c2c(nc(c3c(c(c(c(c23)[H])[H])[H])[H])[H])[H])C(=O)[C@]21C(N(C(C(=O)N(C([H])([H])[H])[H])([H])[H])C(=O)c1c(c(c(Cl)c(c21)[H])[H])[H])([H])[H])([H])[H])[H])([H])[H])([H])([H])[H]

>  <h>  (83) 
<NA>

>  <Training>  (83) 
True

>  <Success>  (83) 
True

>  <enamine_searched>  (83) 
False

>  <enamine_id>  (83) 
nan

$$$$

     RDKit          3D

 40 45  0  0  0  0  0  0  0  0999 V2000
   -7.0120    3.6321  -22.4893 C   0  0  0  0  0  0  0  0  0  0  0  0
   -7.7966    2.6906  -23.2657 N   0  0  0  0  0  0  0  0  0  0  0  0
   -7.5044    2.5221  -24.5754 C   0  0  0  0  0  0  0  0  0  0  0  0
   -6.7344    3.2403  -25.2013 O   0  0  0  0  0  0  0  0  0  0  0  0
   -8.1560    1.3528  -25.3198 C   0  0  0  0  0  0  0  0  0  0  0  0
   -8.9852    0.4584  -24.5546 N   0  0  0  0  0  0  0  0  0  0  0  0
   -8.5090   -0.8877  -24.2815 C   0  0  0  0  0  0  0  0  0  0  0  0
   -9.0661   -1.4241  -22.9396 C   0  0  2  0  0  0  0  0  0  0  0  0
   -8.4680   -0.5775  -21.7886 C   0  0  0  0  0  0  0  0  0  0  0  0
   -8.7761    0.5666  -21.5097 O   0  0  0  0  0  0  0  0  0  0  0  0
   -7.5004   -1.3158  -21.1445 N   0  0  0  0  0  0  0  0  0  0  0  0
   -6.6542   -0.8007  -20.1227 C   0  0  0  0  0  0  0  0  0  0  0  0
   -6.8862   -1.1503  -18.8164 C   0  0  0  0  0  0  0  0  0  0  0  0
   -6.1262   -0.7523  -17.7658 N   0  0  0  0  0  0  0  0  0  0  0  0
   -5.1021    0.0272  -18.0109 C   0  0  0  0  0  0  0  0  0  0  0  0
   -4.7556    0.4824  -19.3157 C   0  0  0  0  0  0  0  0  0  0  0  0
   -3.6670    1.3661  -19.5326 C   0  0  0  0  0  0  0  0  0  0  0  0
   -3.3269    1.7601  -20.7947 C   0  0  0  0  0  0  0  0  0  0  0  0
   -4.0615    1.2851  -21.9027 C   0  0  0  0  0  0  0  0  0  0  0  0
   -5.1421    0.4575  -21.7216 C   0  0  0  0  0  0  0  0  0  0  0  0
   -5.5313    0.0412  -20.4168 C   0  0  0  0  0  0  0  0  0  0  0  0
   -7.2174   -2.5726  -21.8087 C   0  0  0  0  0  0  0  0  0  0  0  0
   -8.5289   -2.8246  -22.5596 C   0  0  2  0  0  0  0  0  0  0  0  0
   -8.4257   -3.8419  -23.6963 C   0  0  0  0  0  0  0  0  0  0  0  0
   -8.1141   -5.1612  -23.2145 N   0  0  0  0  0  0  0  0  0  0  0  0
   -6.8594   -5.7014  -23.1445 C   0  0  0  0  0  0  0  0  0  0  0  0
   -5.4564   -4.9947  -23.9002 S   0  0  0  0  0  0  0  0  0  0  0  0
   -4.5358   -6.3535  -23.3284 C   0  0  0  0  0  0  0  0  0  0  0  0
   -5.1929   -7.2302  -22.6454 N   0  0  0  0  0  0  0  0  0  0  0  0
   -6.5233   -6.8752  -22.5385 C   0  0  0  0  0  0  0  0  0  0  0  0
   -7.4912   -7.7863  -21.8463 C   0  0  0  0  0  0  0  0  0  0  0  0
  -10.5760   -1.3046  -23.0392 C   0  0  0  0  0  0  0  0  0  0  0  0
  -11.4678   -2.2562  -22.5355 C   0  0  0  0  0  0  0  0  0  0  0  0
  -12.8227   -1.9789  -22.4838 C   0  0  0  0  0  0  0  0  0  0  0  0
  -13.8657   -3.1084  -21.6617 Cl  0  0  0  0  0  0  0  0  0  0  0  0
  -13.3602   -0.8044  -23.0114 C   0  0  0  0  0  0  0  0  0  0  0  0
  -12.4957    0.1047  -23.5868 C   0  0  0  0  0  0  0  0  0  0  0  0
  -11.1268   -0.1511  -23.6177 C   0  0  0  0  0  0  0  0  0  0  0  0
  -10.2535    0.8715  -24.2600 C   0  0  0  0  0  0  0  0  0  0  0  0
  -10.6470    2.0136  -24.4801 O   0  0  0  0  0  0  0  0  0  0  0  0
  1  2  1  0
  2  3  1  0
  3  4  2  0
  3  5  1  0
  5  6  1  0
  6  7  1  0
  8  7  1  6
  8  9  1  0
  9 10  2  0
  9 11  1  0
 11 12  1  0
 12 13  2  0
 13 14  1  0
 14 15  2  0
 15 16  1  0
 16 17  2  0
 17 18  1  0
 18 19  2  0
 19 20  1  0
 20 21  2  0
 11 22  1  0
 22 23  1  0
 23 24  1  6
 24 25  1  0
 25 26  1  0
 26 27  1  0
 27 28  1  0
 28 29  2  0
 29 30  1  0
 30 31  1  0
  8 32  1  0
 32 33  2  0
 33 34  1  0
 34 35  1  0
 34 36  2  0
 36 37  1  0
 37 38  2  0
 38 39  1  0
 39 40  2  0
 39  6  1  0
 23  8  1  0
 30 26  2  0
 38 32  1  0
 21 12  1  0
 21 16  1  0
M  END
$$$$

     RDKit          3D

 35 39  0  0  0  0  0  0  0  0999 V2000
    7.1747    5.2257   27.1381 C   0  0  0  0  0  0  0  0  0  0  0  0
    7.3311    4.9993   25.7189 N   0  0  0  0  0  0  0  0  0  0  0  0
    6.6630    3.9565   25.1702 C   0  0  0  0  0  0  0  0  0  0  0  0
    5.9735    3.1928   25.8309 O   0  0  0  0  0  0  0  0  0  0  0  0
    6.8381    3.8074   23.6616 C   0  0  0  0  0  0  0  0  0  0  0  0
    7.9510    2.9440   23.3223 N   0  0  0  0  0  0  0  0  0  0  0  0
    7.8394    1.5116   23.5637 C   0  0  0  0  0  0  0  0  0  0  0  0
    8.4784    0.7283   22.3853 C   0  0  2  0  0  0  0  0  0  0  0  0
    7.6453    0.9773   21.1082 C   0  0  0  0  0  0  0  0  0  0  0  0
    7.5890    1.9759   20.4283 O   0  0  0  0  0  0  0  0  0  0  0  0
    6.8943   -0.1530   20.8489 N   0  0  0  0  0  0  0  0  0  0  0  0
    5.8773   -0.1241   19.8645 C   0  0  0  0  0  0  0  0  0  0  0  0
    6.0319   -0.7968   18.6792 C   0  0  0  0  0  0  0  0  0  0  0  0
    5.1994   -0.6772   17.6159 N   0  0  0  0  0  0  0  0  0  0  0  0
    4.1482    0.0967   17.7658 C   0  0  0  0  0  0  0  0  0  0  0  0
    3.8125    0.7682   18.9760 C   0  0  0  0  0  0  0  0  0  0  0  0
    2.6361    1.5542   19.1053 C   0  0  0  0  0  0  0  0  0  0  0  0
    2.3092    2.1294   20.3025 C   0  0  0  0  0  0  0  0  0  0  0  0
    3.1635    1.9813   21.4179 C   0  0  0  0  0  0  0  0  0  0  0  0
    4.3277    1.2632   21.3078 C   0  0  0  0  0  0  0  0  0  0  0  0
    4.6852    0.6389   20.0764 C   0  0  0  0  0  0  0  0  0  0  0  0
    7.1335   -1.2531   21.7545 C   0  0  0  0  0  0  0  0  0  0  0  0
    8.3730   -0.8033   22.5309 C   0  0  2  0  0  0  0  0  0  0  0  0
    8.4555   -1.3912   23.9465 C   0  0  0  0  0  0  0  0  0  0  0  0
    9.7503   -1.1285   24.5872 C   0  0  0  0  0  0  0  0  0  0  0  0
   10.7747   -0.8988   25.0755 N   0  0  0  0  0  0  0  0  0  0  0  0
    9.9074    1.2321   22.2513 C   0  0  0  0  0  0  0  0  0  0  0  0
   10.9642    0.3837   21.8764 C   0  0  0  0  0  0  0  0  0  0  0  0
   12.2502    0.8711   21.8221 C   0  0  0  0  0  0  0  0  0  0  0  0
   13.5661   -0.2265   21.5569 Cl  0  0  0  0  0  0  0  0  0  0  0  0
   12.5264    2.2235   21.9728 C   0  0  0  0  0  0  0  0  0  0  0  0
   11.4912    3.0778   22.2976 C   0  0  0  0  0  0  0  0  0  0  0  0
   10.2068    2.5784   22.5118 C   0  0  0  0  0  0  0  0  0  0  0  0
    9.1717    3.5093   23.0711 C   0  0  0  0  0  0  0  0  0  0  0  0
    9.4172    4.6908   23.3126 O   0  0  0  0  0  0  0  0  0  0  0  0
  1  2  1  0
  2  3  1  0
  3  4  2  0
  3  5  1  0
  5  6  1  0
  6  7  1  0
  8  7  1  1
  8  9  1  0
  9 10  2  0
  9 11  1  0
 11 12  1  0
 12 13  2  0
 13 14  1  0
 14 15  2  0
 15 16  1  0
 16 17  2  0
 17 18  1  0
 18 19  2  0
 19 20  1  0
 20 21  2  0
 11 22  1  0
 22 23  1  0
 23 24  1  1
 24 25  1  0
 25 26  3  0
  8 27  1  0
 27 28  2  0
 28 29  1  0
 29 30  1  0
 29 31  2  0
 31 32  1  0
 32 33  2  0
 33 34  1  0
 34 35  2  0
 34  6  1  0
 23  8  1  0
 33 27  1  0
 21 12  1  0
 21 16  1  0
M  END
$$$$

     RDKit          3D

 35 39  0  0  0  0  0  0  0  0999 V2000
   -7.0212    3.6296  -22.4835 C   0  0  0  0  0  0  0  0  0  0  0  0
   -7.7852    2.6763  -23.2617 N   0  0  0  0  0  0  0  0  0  0  0  0
   -7.4950    2.5179  -24.5719 C   0  0  0  0  0  0  0  0  0  0  0  0
   -6.7268    3.2444  -25.1894 O   0  0  0  0  0  0  0  0  0  0  0  0
   -8.1623    1.3608  -25.3237 C   0  0  0  0  0  0  0  0  0  0  0  0
   -8.9883    0.4613  -24.5592 N   0  0  0  0  0  0  0  0  0  0  0  0
   -8.5110   -0.8831  -24.2813 C   0  0  0  0  0  0  0  0  0  0  0  0
   -9.0682   -1.4178  -22.9378 C   0  0  2  0  0  0  0  0  0  0  0  0
   -8.4693   -0.5715  -21.7846 C   0  0  0  0  0  0  0  0  0  0  0  0
   -8.7600    0.5809  -21.5111 O   0  0  0  0  0  0  0  0  0  0  0  0
   -7.5089   -1.3086  -21.1364 N   0  0  0  0  0  0  0  0  0  0  0  0
   -6.6589   -0.7872  -20.1185 C   0  0  0  0  0  0  0  0  0  0  0  0
   -6.8838   -1.1482  -18.8129 C   0  0  0  0  0  0  0  0  0  0  0  0
   -6.1138   -0.7659  -17.7650 N   0  0  0  0  0  0  0  0  0  0  0  0
   -5.0875    0.0102  -18.0134 C   0  0  0  0  0  0  0  0  0  0  0  0
   -4.7427    0.4717  -19.3161 C   0  0  0  0  0  0  0  0  0  0  0  0
   -3.6586    1.3640  -19.5279 C   0  0  0  0  0  0  0  0  0  0  0  0
   -3.3266    1.7600  -20.7923 C   0  0  0  0  0  0  0  0  0  0  0  0
   -4.0563    1.2857  -21.9043 C   0  0  0  0  0  0  0  0  0  0  0  0
   -5.1383    0.4586  -21.7228 C   0  0  0  0  0  0  0  0  0  0  0  0
   -5.5286    0.0460  -20.4162 C   0  0  0  0  0  0  0  0  0  0  0  0
   -7.2255   -2.5638  -21.8066 C   0  0  0  0  0  0  0  0  0  0  0  0
   -8.5276   -2.8257  -22.5683 C   0  0  2  0  0  0  0  0  0  0  0  0
   -8.3709   -3.8226  -23.7145 C   0  0  0  0  0  0  0  0  0  0  0  0
   -9.5947   -4.0297  -24.3935 O   0  0  0  0  0  0  0  0  0  0  0  0
  -10.3078   -5.1667  -23.9691 C   0  0  0  0  0  0  0  0  0  0  0  0
  -10.5768   -1.3043  -23.0410 C   0  0  0  0  0  0  0  0  0  0  0  0
  -11.4649   -2.2623  -22.5444 C   0  0  0  0  0  0  0  0  0  0  0  0
  -12.8206   -1.9913  -22.5080 C   0  0  0  0  0  0  0  0  0  0  0  0
  -13.8691   -3.1378  -21.7131 Cl  0  0  0  0  0  0  0  0  0  0  0  0
  -13.3599   -0.8125  -23.0230 C   0  0  0  0  0  0  0  0  0  0  0  0
  -12.4963    0.1023  -23.5881 C   0  0  0  0  0  0  0  0  0  0  0  0
  -11.1273   -0.1495  -23.6154 C   0  0  0  0  0  0  0  0  0  0  0  0
  -10.2539    0.8743  -24.2552 C   0  0  0  0  0  0  0  0  0  0  0  0
  -10.6421    2.0171  -24.4796 O   0  0  0  0  0  0  0  0  0  0  0  0
  1  2  1  0
  2  3  1  0
  3  4  2  0
  3  5  1  0
  5  6  1  0
  6  7  1  0
  8  7  1  6
  8  9  1  0
  9 10  2  0
  9 11  1  0
 11 12  1  0
 12 13  2  0
 13 14  1  0
 14 15  2  0
 15 16  1  0
 16 17  2  0
 17 18  1  0
 18 19  2  0
 19 20  1  0
 20 21  2  0
 11 22  1  0
 22 23  1  0
 23 24  1  6
 24 25  1  0
 25 26  1  0
  8 27  1  0
 27 28  2  0
 28 29  1  0
 29 30  1  0
 29 31  2  0
 31 32  1  0
 32 33  2  0
 33 34  1  0
 34 35  2  0
 34  6  1  0
 23  8  1  0
 33 27  1  0
 21 12  1  0
 21 16  1  0
M  END
$$$$

     RDKit          3D

 38 43  0  0  0  0  0  0  0  0999 V2000
    8.5334   -1.4101   23.8976 C   0  0  0  0  0  0  0  0  0  0  0  0
    8.5027   -0.8304   22.4859 C   0  0  1  0  0  0  0  0  0  0  0  0
    7.2250   -1.2434   21.7245 C   0  0  0  0  0  0  0  0  0  0  0  0
    6.9819   -0.1245   20.8413 N   0  0  0  0  0  0  0  0  0  0  0  0
    5.9446   -0.0773   19.8766 C   0  0  0  0  0  0  0  0  0  0  0  0
    6.0795   -0.7672   18.6994 C   0  0  0  0  0  0  0  0  0  0  0  0
    5.2362   -0.6653   17.6445 N   0  0  0  0  0  0  0  0  0  0  0  0
    4.1866    0.1102   17.7895 C   0  0  0  0  0  0  0  0  0  0  0  0
    3.8650    0.7999   18.9933 C   0  0  0  0  0  0  0  0  0  0  0  0
    2.6772    1.5706   19.1185 C   0  0  0  0  0  0  0  0  0  0  0  0
    2.3422    2.1486   20.3117 C   0  0  0  0  0  0  0  0  0  0  0  0
    3.2000    2.0169   21.4253 C   0  0  0  0  0  0  0  0  0  0  0  0
    4.3829    1.3241   21.3147 C   0  0  0  0  0  0  0  0  0  0  0  0
    4.7525    0.6917   20.0905 C   0  0  0  0  0  0  0  0  0  0  0  0
    7.7508    0.9869   21.1056 C   0  0  0  0  0  0  0  0  0  0  0  0
    7.6962    2.0081   20.4496 O   0  0  0  0  0  0  0  0  0  0  0  0
    8.5911    0.7262   22.3778 C   0  0  1  0  0  0  0  0  0  0  0  0
    7.8622    1.4343   23.5595 C   0  0  0  0  0  0  0  0  0  0  0  0
    7.8986    2.8795   23.4225 N   0  0  0  0  0  0  0  0  0  0  0  0
    6.7686    3.7428   23.7313 C   0  0  0  0  0  0  0  0  0  0  0  0
    6.3204    4.4999   22.4778 C   0  0  0  0  0  0  0  0  0  0  0  0
    5.0929    5.2397   22.7093 N   0  0  0  0  0  0  0  0  0  0  0  0
    5.3169    6.4839   23.4442 C   0  0  0  0  0  0  0  0  0  0  0  0
    4.0159    7.0010   24.0475 C   0  0  0  0  0  0  0  0  0  0  0  0
    2.8122    7.3236   22.7544 S   0  0  0  0  0  0  0  0  0  0  0  0
    3.3346    8.4337   21.9602 O   0  0  0  0  0  0  0  0  0  0  0  0
    1.4862    7.3990   23.3547 O   0  0  0  0  0  0  0  0  0  0  0  0
    2.9174    5.8408   21.7463 C   0  0  0  0  0  0  0  0  0  0  0  0
    4.3693    5.4753   21.4655 C   0  0  0  0  0  0  0  0  0  0  0  0
    9.0519    3.5379   23.1096 C   0  0  0  0  0  0  0  0  0  0  0  0
    9.1907    4.7388   23.3168 O   0  0  0  0  0  0  0  0  0  0  0  0
   10.1421    2.7258   22.4850 C   0  0  0  0  0  0  0  0  0  0  0  0
   11.3309    3.3939   22.1765 C   0  0  0  0  0  0  0  0  0  0  0  0
   12.4692    2.6644   21.8866 C   0  0  0  0  0  0  0  0  0  0  0  0
   12.3715    1.2677   21.8983 C   0  0  0  0  0  0  0  0  0  0  0  0
   13.8201    0.3312   21.6774 Cl  0  0  0  0  0  0  0  0  0  0  0  0
   11.1660    0.6006   22.0743 C   0  0  0  0  0  0  0  0  0  0  0  0
    9.9924    1.3389   22.2946 C   0  0  0  0  0  0  0  0  0  0  0  0
  2  1  1  1
  2  3  1  0
  3  4  1  0
  4  5  1  0
  5  6  2  0
  6  7  1  0
  7  8  2  0
  8  9  1  0
  9 10  2  0
 10 11  1  0
 11 12  2  0
 12 13  1  0
 13 14  2  0
  4 15  1  0
 15 16  2  0
 15 17  1  0
 17 18  1  1
 18 19  1  0
 19 20  1  0
 20 21  1  0
 21 22  1  0
 22 23  1  0
 23 24  1  0
 24 25  1  0
 25 26  2  0
 25 27  2  0
 25 28  1  0
 28 29  1  0
 19 30  1  0
 30 31  2  0
 30 32  1  0
 32 33  2  0
 33 34  1  0
 34 35  2  0
 35 36  1  0
 35 37  1  0
 37 38  2  0
 17  2  1  0
 29 22  1  0
 38 32  1  0
 14  5  1  0
 38 17  1  0
 14  9  1  0
M  END
$$$$

     RDKit          3D

 39 44  0  0  0  0  0  0  0  0999 V2000
   -7.0173    3.6302  -22.4781 C   0  0  0  0  0  0  0  0  0  0  0  0
   -7.7707    2.6688  -23.2579 N   0  0  0  0  0  0  0  0  0  0  0  0
   -7.4867    2.5193  -24.5718 C   0  0  0  0  0  0  0  0  0  0  0  0
   -6.7235    3.2506  -25.1866 O   0  0  0  0  0  0  0  0  0  0  0  0
   -8.1583    1.3625  -25.3223 C   0  0  0  0  0  0  0  0  0  0  0  0
   -8.9830    0.4679  -24.5507 N   0  0  0  0  0  0  0  0  0  0  0  0
   -8.5106   -0.8802  -24.2785 C   0  0  0  0  0  0  0  0  0  0  0  0
   -9.0730   -1.4223  -22.9386 C   0  0  2  0  0  0  0  0  0  0  0  0
   -8.4725   -0.5761  -21.7846 C   0  0  0  0  0  0  0  0  0  0  0  0
   -8.7607    0.5752  -21.5081 O   0  0  0  0  0  0  0  0  0  0  0  0
   -7.5081   -1.3105  -21.1412 N   0  0  0  0  0  0  0  0  0  0  0  0
   -6.6613   -0.7882  -20.1214 C   0  0  0  0  0  0  0  0  0  0  0  0
   -6.8861   -1.1486  -18.8156 C   0  0  0  0  0  0  0  0  0  0  0  0
   -6.1172   -0.7657  -17.7671 N   0  0  0  0  0  0  0  0  0  0  0  0
   -5.0888    0.0079  -18.0163 C   0  0  0  0  0  0  0  0  0  0  0  0
   -4.7445    0.4706  -19.3182 C   0  0  0  0  0  0  0  0  0  0  0  0
   -3.6584    1.3626  -19.5273 C   0  0  0  0  0  0  0  0  0  0  0  0
   -3.3280    1.7602  -20.7920 C   0  0  0  0  0  0  0  0  0  0  0  0
   -4.0580    1.2857  -21.9049 C   0  0  0  0  0  0  0  0  0  0  0  0
   -5.1382    0.4563  -21.7245 C   0  0  0  0  0  0  0  0  0  0  0  0
   -5.5291    0.0432  -20.4177 C   0  0  0  0  0  0  0  0  0  0  0  0
   -7.2208   -2.5585  -21.8191 C   0  0  0  0  0  0  0  0  0  0  0  0
   -8.5262   -2.8310  -22.5766 C   0  0  2  0  0  0  0  0  0  0  0  0
   -8.3841   -3.8571  -23.7163 C   0  0  0  0  0  0  0  0  0  0  0  0
   -9.7299   -4.2945  -24.2678 C   0  0  0  0  0  0  0  0  0  0  0  0
  -10.5782   -5.0567  -23.4638 C   0  0  0  0  0  0  0  0  0  0  0  0
  -11.8781   -5.3428  -23.8548 C   0  0  0  0  0  0  0  0  0  0  0  0
  -12.2953   -5.0583  -25.1488 C   0  0  0  0  0  0  0  0  0  0  0  0
  -11.4423   -4.3602  -25.9904 C   0  0  0  0  0  0  0  0  0  0  0  0
  -10.1938   -3.9387  -25.5365 C   0  0  0  0  0  0  0  0  0  0  0  0
  -10.5818   -1.2883  -23.0411 C   0  0  0  0  0  0  0  0  0  0  0  0
  -11.4721   -2.2227  -22.5187 C   0  0  0  0  0  0  0  0  0  0  0  0
  -12.8285   -1.9640  -22.5018 C   0  0  0  0  0  0  0  0  0  0  0  0
  -13.8626   -3.1446  -21.7397 Cl  0  0  0  0  0  0  0  0  0  0  0  0
  -13.3715   -0.7942  -23.0291 C   0  0  0  0  0  0  0  0  0  0  0  0
  -12.5034    0.1157  -23.5925 C   0  0  0  0  0  0  0  0  0  0  0  0
  -11.1341   -0.1385  -23.6197 C   0  0  0  0  0  0  0  0  0  0  0  0
  -10.2528    0.8820  -24.2605 C   0  0  0  0  0  0  0  0  0  0  0  0
  -10.6393    2.0208  -24.4966 O   0  0  0  0  0  0  0  0  0  0  0  0
  1  2  1  0
  2  3  1  0
  3  4  2  0
  3  5  1  0
  5  6  1  0
  6  7  1  0
  8  7  1  6
  8  9  1  0
  9 10  2  0
  9 11  1  0
 11 12  1  0
 12 13  2  0
 13 14  1  0
 14 15  2  0
 15 16  1  0
 16 17  2  0
 17 18  1  0
 18 19  2  0
 19 20  1  0
 20 21  2  0
 11 22  1  0
 22 23  1  0
 23 24  1  6
 24 25  1  0
 25 26  2  0
 26 27  1  0
 27 28  2  0
 28 29  1  0
 29 30  2  0
  8 31  1  0
 31 32  2  0
 32 33  1  0
 33 34  1  0
 33 35  2  0
 35 36  1  0
 36 37  2  0
 37 38  1  0
 38 39  2  0
 38  6  1  0
 23  8  1  0
 30 25  1  0
 37 31  1  0
 21 12  1  0
 21 16  1  0
M  END
$$$$

     RDKit          3D

 31 35  0  0  0  0  0  0  0  0999 V2000
   -8.6389   -3.6566  -23.8197 C   0  0  0  0  0  0  0  0  0  0  0  0
   -8.7240   -2.7167  -22.6146 C   0  0  1  0  0  0  0  0  0  0  0  0
   -7.3640   -2.4614  -21.9443 C   0  0  0  0  0  0  0  0  0  0  0  0
   -7.5894   -1.2115  -21.2391 N   0  0  0  0  0  0  0  0  0  0  0  0
   -6.7531   -0.7719  -20.1816 C   0  0  0  0  0  0  0  0  0  0  0  0
   -7.0201   -1.1537  -18.8476 C   0  0  0  0  0  0  0  0  0  0  0  0
   -6.2470   -0.8209  -17.7952 N   0  0  0  0  0  0  0  0  0  0  0  0
   -5.1584   -0.0687  -18.0278 C   0  0  0  0  0  0  0  0  0  0  0  0
   -4.8112    0.3854  -19.3062 C   0  0  0  0  0  0  0  0  0  0  0  0
   -3.6971    1.2180  -19.4893 C   0  0  0  0  0  0  0  0  0  0  0  0
   -3.3417    1.6415  -20.7716 C   0  0  0  0  0  0  0  0  0  0  0  0
   -4.0871    1.2260  -21.8792 C   0  0  0  0  0  0  0  0  0  0  0  0
   -5.2186    0.4206  -21.6969 C   0  0  0  0  0  0  0  0  0  0  0  0
   -5.6038    0.0084  -20.4111 C   0  0  0  0  0  0  0  0  0  0  0  0
   -8.6367   -0.5159  -21.8263 C   0  0  0  0  0  0  0  0  0  0  0  0
   -9.0101    0.5981  -21.4930 O   0  0  0  0  0  0  0  0  0  0  0  0
   -9.2552   -1.3056  -22.9751 C   0  0  1  0  0  0  0  0  0  0  0  0
   -8.6411   -0.5599  -24.1810 C   0  0  0  0  0  0  0  0  0  0  0  0
   -9.0876    0.8328  -24.1456 N   0  0  0  0  0  0  0  0  0  0  0  0
   -8.1360    1.9348  -24.3731 C   0  0  0  0  0  0  0  0  0  0  0  0
   -7.7670    2.6248  -23.1260 C   0  0  0  0  0  0  0  0  0  0  0  0
   -7.4167    3.1914  -22.1735 N   0  0  0  0  0  0  0  0  0  0  0  0
  -10.4563    1.0614  -24.0007 C   0  0  0  0  0  0  0  0  0  0  0  0
  -10.9055    2.1534  -24.3236 O   0  0  0  0  0  0  0  0  0  0  0  0
  -11.3562   -0.0147  -23.5323 C   0  0  0  0  0  0  0  0  0  0  0  0
  -12.7608    0.1121  -23.5664 C   0  0  0  0  0  0  0  0  0  0  0  0
  -13.5737   -0.9335  -23.1125 C   0  0  0  0  0  0  0  0  0  0  0  0
  -13.0025   -2.1087  -22.6267 C   0  0  0  0  0  0  0  0  0  0  0  0
  -13.7931   -3.0883  -22.1269 F   0  0  0  0  0  0  0  0  0  0  0  0
  -11.6109   -2.2511  -22.6473 C   0  0  0  0  0  0  0  0  0  0  0  0
  -10.7750   -1.2038  -23.0608 C   0  0  0  0  0  0  0  0  0  0  0  0
  2  1  1  6
  2  3  1  0
  3  4  1  0
  4  5  1  0
  5  6  2  0
  6  7  1  0
  7  8  2  0
  8  9  1  0
  9 10  2  0
 10 11  1  0
 11 12  2  0
 12 13  1  0
 13 14  2  0
  4 15  1  0
 15 16  2  0
 15 17  1  0
 17 18  1  6
 18 19  1  0
 19 20  1  0
 20 21  1  0
 21 22  3  0
 19 23  1  0
 23 24  2  0
 23 25  1  0
 25 26  2  0
 26 27  1  0
 27 28  2  0
 28 29  1  0
 28 30  1  0
 30 31  2  0
 17  2  1  0
 31 25  1  0
 14  5  1  0
 31 17  1  0
 14  9  1  0
M  END
$$$$

     RDKit          3D

 31 36  0  0  0  0  0  0  0  0999 V2000
   -8.3552    0.6243  -21.3054 O   0  0  0  0  0  0  0  0  0  0  0  0
   -8.1457   -0.4707  -21.7902 C   0  0  0  0  0  0  0  0  0  0  0  0
   -7.2609   -1.4938  -21.0540 C   0  0  0  0  0  0  0  0  0  0  0  0
   -6.4726   -0.8870  -19.9282 C   0  0  0  0  0  0  0  0  0  0  0  0
   -6.7355   -1.1663  -18.6131 C   0  0  0  0  0  0  0  0  0  0  0  0
   -6.0599   -0.6538  -17.5492 N   0  0  0  0  0  0  0  0  0  0  0  0
   -5.0750    0.1718  -17.8099 C   0  0  0  0  0  0  0  0  0  0  0  0
   -4.6921    0.5528  -19.1263 C   0  0  0  0  0  0  0  0  0  0  0  0
   -3.6328    1.4632  -19.3676 C   0  0  0  0  0  0  0  0  0  0  0  0
   -3.3280    1.8626  -20.6391 C   0  0  0  0  0  0  0  0  0  0  0  0
   -4.0315    1.3206  -21.7351 C   0  0  0  0  0  0  0  0  0  0  0  0
   -5.0390    0.4122  -21.5320 C   0  0  0  0  0  0  0  0  0  0  0  0
   -5.4101    0.0172  -20.2164 C   0  0  0  0  0  0  0  0  0  0  0  0
   -8.7581   -0.8587  -22.9751 N   0  0  0  0  0  0  0  0  0  0  0  0
   -9.8353   -0.0191  -23.5216 C   0  0  0  0  0  0  0  0  0  0  0  0
  -11.0785   -0.8319  -23.8456 C   0  0  0  0  0  0  0  0  0  0  0  0
  -11.6273   -0.9890  -25.1202 C   0  0  0  0  0  0  0  0  0  0  0  0
  -12.7718   -1.7514  -25.3153 C   0  0  0  0  0  0  0  0  0  0  0  0
  -13.4290   -2.3245  -24.2421 C   0  0  0  0  0  0  0  0  0  0  0  0
  -12.8663   -2.2002  -22.9827 C   0  0  0  0  0  0  0  0  0  0  0  0
  -13.6534   -2.9905  -21.6509 Cl  0  0  0  0  0  0  0  0  0  0  0  0
  -11.6743   -1.5161  -22.7933 C   0  0  0  0  0  0  0  0  0  0  0  0
   -8.1474   -1.8027  -23.8663 C   0  0  2  0  0  0  0  0  0  0  0  0
   -8.2227   -3.2970  -23.5211 C   0  0  0  0  0  0  0  0  0  0  0  0
   -7.4423   -3.8621  -24.6813 N   0  0  1  0  0  0  0  0  0  0  0  0
   -8.1348   -4.8907  -25.4606 C   0  0  0  0  0  0  0  0  0  0  0  0
   -7.9141   -6.3152  -25.0865 C   0  0  0  0  0  0  0  0  0  0  0  0
   -7.3056   -5.7553  -26.3456 C   0  0  0  0  0  0  0  0  0  0  0  0
   -7.1431   -2.5881  -25.4395 C   0  0  2  0  0  0  0  0  0  0  0  0
   -6.6665   -1.6846  -24.3006 C   0  0  0  0  0  0  0  0  0  0  0  0
   -8.4812   -1.8536  -25.3808 C   0  0  0  0  0  0  0  0  0  0  0  0
  1  2  2  0
  2  3  1  0
  3  4  1  0
  4  5  2  0
  5  6  1  0
  6  7  2  0
  7  8  1  0
  8  9  2  0
  9 10  1  0
 10 11  2  0
 11 12  1  0
 12 13  2  0
  2 14  1  0
 14 15  1  0
 15 16  1  0
 16 17  2  0
 17 18  1  0
 18 19  2  0
 19 20  1  0
 20 21  1  0
 20 22  2  0
 23 14  1  1
 23 24  1  0
 24 25  1  0
 25 26  1  6
 26 27  1  0
 27 28  1  0
 25 29  1  0
 29 30  1  1
 29 31  1  0
 13  4  1  0
 22 16  1  0
 30 23  1  0
 13  8  1  0
 31 23  1  0
 28 26  1  0
M  CHG  1  25   1
M  END
$$$$

     RDKit          3D

 22 24  0  0  0  0  0  0  0  0999 V2000
   -8.7743    1.1620  -24.4931 C   0  0  0  0  0  0  0  0  0  0  0  0
   -8.8538   -0.1371  -25.3054 C   0  0  0  0  0  0  0  0  0  0  0  0
   -7.8458   -0.0862  -26.4457 C   0  0  0  0  0  0  0  0  0  0  0  0
   -8.7114   -1.3964  -24.4494 C   0  0  0  0  0  0  0  0  0  0  0  0
   -9.7743   -1.3646  -23.3327 C   0  0  0  0  0  0  0  0  0  0  0  0
   -9.7381   -2.6963  -22.5778 C   0  0  0  0  0  0  0  0  0  0  0  0
   -8.3897   -2.8334  -22.0163 N   0  0  0  0  0  0  0  0  0  0  0  0
   -7.9892   -1.9769  -20.9957 C   0  0  0  0  0  0  0  0  0  0  0  0
   -8.6596   -0.9836  -20.7381 O   0  0  0  0  0  0  0  0  0  0  0  0
   -6.6403   -2.2415  -20.3038 C   0  0  0  0  0  0  0  0  0  0  0  0
   -6.0685   -1.1797  -19.3625 C   0  0  0  0  0  0  0  0  0  0  0  0
   -6.3474   -1.2095  -17.9882 C   0  0  0  0  0  0  0  0  0  0  0  0
   -5.6825   -0.4785  -17.0750 N   0  0  0  0  0  0  0  0  0  0  0  0
   -4.6913    0.3200  -17.5079 C   0  0  0  0  0  0  0  0  0  0  0  0
   -4.3885    0.4797  -18.8652 C   0  0  0  0  0  0  0  0  0  0  0  0
   -3.3668    1.3426  -19.2920 C   0  0  0  0  0  0  0  0  0  0  0  0
   -3.1190    1.5177  -20.6566 C   0  0  0  0  0  0  0  0  0  0  0  0
   -3.8866    0.8339  -21.6008 C   0  0  0  0  0  0  0  0  0  0  0  0
   -4.8780   -0.0547  -21.1788 C   0  0  0  0  0  0  0  0  0  0  0  0
   -5.1237   -0.2496  -19.8148 C   0  0  0  0  0  0  0  0  0  0  0  0
   -7.3697   -2.9841  -23.0572 C   0  0  0  0  0  0  0  0  0  0  0  0
   -7.3366   -1.6252  -23.7939 C   0  0  0  0  0  0  0  0  0  0  0  0
  1  2  1  0
  2  3  1  0
  2  4  1  0
  4  5  1  0
  5  6  1  0
  6  7  1  0
  7  8  1  0
  8  9  2  0
  8 10  1  0
 10 11  1  0
 11 12  2  0
 12 13  1  0
 13 14  2  0
 14 15  1  0
 15 16  2  0
 16 17  1  0
 17 18  2  0
 18 19  1  0
 19 20  2  0
  7 21  1  0
 21 22  1  0
 22  4  1  0
 20 11  1  0
 20 15  1  0
M  END
$$$$

     RDKit          3D

 40 45  0  0  0  0  0  0  0  0999 V2000
   -7.0205    3.6303  -22.4838 C   0  0  0  0  0  0  0  0  0  0  0  0
   -7.7881    2.6786  -23.2610 N   0  0  0  0  0  0  0  0  0  0  0  0
   -7.4949    2.5158  -24.5707 C   0  0  0  0  0  0  0  0  0  0  0  0
   -6.7251    3.2413  -25.1869 O   0  0  0  0  0  0  0  0  0  0  0  0
   -8.1610    1.3596  -25.3210 C   0  0  0  0  0  0  0  0  0  0  0  0
   -8.9841    0.4597  -24.5550 N   0  0  0  0  0  0  0  0  0  0  0  0
   -8.5061   -0.8878  -24.2871 C   0  0  0  0  0  0  0  0  0  0  0  0
   -9.0669   -1.4250  -22.9438 C   0  0  2  0  0  0  0  0  0  0  0  0
   -8.4587   -0.5862  -21.7902 C   0  0  0  0  0  0  0  0  0  0  0  0
   -8.7460    0.5614  -21.5120 O   0  0  0  0  0  0  0  0  0  0  0  0
   -7.4931   -1.3312  -21.1499 N   0  0  0  0  0  0  0  0  0  0  0  0
   -6.6487   -0.8080  -20.1288 C   0  0  0  0  0  0  0  0  0  0  0  0
   -6.8813   -1.1585  -18.8219 C   0  0  0  0  0  0  0  0  0  0  0  0
   -6.1153   -0.7723  -17.7714 N   0  0  0  0  0  0  0  0  0  0  0  0
   -5.0904    0.0056  -18.0182 C   0  0  0  0  0  0  0  0  0  0  0  0
   -4.7442    0.4670  -19.3205 C   0  0  0  0  0  0  0  0  0  0  0  0
   -3.6613    1.3609  -19.5302 C   0  0  0  0  0  0  0  0  0  0  0  0
   -3.3270    1.7600  -20.7936 C   0  0  0  0  0  0  0  0  0  0  0  0
   -4.0568    1.2871  -21.9062 C   0  0  0  0  0  0  0  0  0  0  0  0
   -5.1372    0.4576  -21.7270 C   0  0  0  0  0  0  0  0  0  0  0  0
   -5.5257    0.0373  -20.4224 C   0  0  0  0  0  0  0  0  0  0  0  0
   -7.2195   -2.5876  -21.8195 C   0  0  0  0  0  0  0  0  0  0  0  0
   -8.5398   -2.8265  -22.5562 C   0  0  2  0  0  0  0  0  0  0  0  0
   -8.4495   -3.8485  -23.6855 C   0  0  0  0  0  0  0  0  0  0  0  0
   -8.1839   -5.1869  -23.2255 N   0  0  0  0  0  0  0  0  0  0  0  0
   -6.9213   -5.6783  -23.0455 C   0  0  0  0  0  0  0  0  0  0  0  0
   -5.7263   -5.1856  -23.4757 C   0  0  0  0  0  0  0  0  0  0  0  0
   -4.6245   -5.9481  -23.1876 N   0  0  0  0  0  0  0  0  0  0  0  0
   -4.9454   -7.0174  -22.5369 C   0  0  0  0  0  0  0  0  0  0  0  0
   -3.9551   -8.0328  -22.0840 C   0  0  0  0  0  0  0  0  0  0  0  0
   -6.6464   -7.1924  -22.2141 S   0  0  0  0  0  0  0  0  0  0  0  0
  -10.5764   -1.3080  -23.0442 C   0  0  0  0  0  0  0  0  0  0  0  0
  -11.4694   -2.2672  -22.5554 C   0  0  0  0  0  0  0  0  0  0  0  0
  -12.8245   -1.9912  -22.5140 C   0  0  0  0  0  0  0  0  0  0  0  0
  -13.8722   -3.1315  -21.7151 Cl  0  0  0  0  0  0  0  0  0  0  0  0
  -13.3598   -0.8087  -23.0249 C   0  0  0  0  0  0  0  0  0  0  0  0
  -12.4939    0.1056  -23.5883 C   0  0  0  0  0  0  0  0  0  0  0  0
  -11.1253   -0.1502  -23.6130 C   0  0  0  0  0  0  0  0  0  0  0  0
  -10.2496    0.8731  -24.2512 C   0  0  0  0  0  0  0  0  0  0  0  0
  -10.6370    2.0158  -24.4747 O   0  0  0  0  0  0  0  0  0  0  0  0
  1  2  1  0
  2  3  1  0
  3  4  2  0
  3  5  1  0
  5  6  1  0
  6  7  1  0
  8  7  1  6
  8  9  1  0
  9 10  2  0
  9 11  1  0
 11 12  1  0
 12 13  2  0
 13 14  1  0
 14 15  2  0
 15 16  1  0
 16 17  2  0
 17 18  1  0
 18 19  2  0
 19 20  1  0
 20 21  2  0
 11 22  1  0
 22 23  1  0
 23 24  1  6
 24 25  1  0
 25 26  1  0
 26 27  2  0
 27 28  1  0
 28 29  2  0
 29 30  1  0
 29 31  1  0
  8 32  1  0
 32 33  2  0
 33 34  1  0
 34 35  1  0
 34 36  2  0
 36 37  1  0
 37 38  2  0
 38 39  1  0
 39 40  2  0
 39  6  1  0
 23  8  1  0
 31 26  1  0
 38 32  1  0
 21 12  1  0
 21 16  1  0
M  END
$$$$

     RDKit          3D

 38 43  0  0  0  0  0  0  0  0999 V2000
    7.1161    5.1404   27.1927 C   0  0  0  0  0  0  0  0  0  0  0  0
    7.2799    4.8241   25.7903 N   0  0  0  0  0  0  0  0  0  0  0  0
    6.4885    3.8701   25.2403 C   0  0  0  0  0  0  0  0  0  0  0  0
    5.7152    3.1929   25.8989 O   0  0  0  0  0  0  0  0  0  0  0  0
    6.6249    3.7005   23.7258 C   0  0  0  0  0  0  0  0  0  0  0  0
    7.7757    2.9037   23.3497 N   0  0  0  0  0  0  0  0  0  0  0  0
    7.7590    1.4553   23.5703 C   0  0  0  0  0  0  0  0  0  0  0  0
    8.4699    0.7094   22.4016 C   0  0  2  0  0  0  0  0  0  0  0  0
    7.6435    0.9542   21.1104 C   0  0  0  0  0  0  0  0  0  0  0  0
    7.5804    1.9485   20.4278 O   0  0  0  0  0  0  0  0  0  0  0  0
    6.9192   -0.1893   20.8365 N   0  0  0  0  0  0  0  0  0  0  0  0
    5.8994   -0.1507   19.8580 C   0  0  0  0  0  0  0  0  0  0  0  0
    6.0729   -0.7932   18.6610 C   0  0  0  0  0  0  0  0  0  0  0  0
    5.2544   -0.6530   17.5914 N   0  0  0  0  0  0  0  0  0  0  0  0
    4.2035    0.1218   17.7415 C   0  0  0  0  0  0  0  0  0  0  0  0
    3.8596    0.7771   18.9583 C   0  0  0  0  0  0  0  0  0  0  0  0
    2.6937    1.5775   19.0834 C   0  0  0  0  0  0  0  0  0  0  0  0
    2.3606    2.1474   20.2814 C   0  0  0  0  0  0  0  0  0  0  0  0
    3.1884    1.9616   21.4104 C   0  0  0  0  0  0  0  0  0  0  0  0
    4.3371    1.2178   21.3099 C   0  0  0  0  0  0  0  0  0  0  0  0
    4.7129    0.6193   20.0703 C   0  0  0  0  0  0  0  0  0  0  0  0
    7.1540   -1.2811   21.7491 C   0  0  0  0  0  0  0  0  0  0  0  0
    8.4118   -0.8417   22.5164 C   0  0  2  0  0  0  0  0  0  0  0  0
    8.4377   -1.4593   23.9251 C   0  0  0  0  0  0  0  0  0  0  0  0
    9.7217   -1.2199   24.6577 C   0  0  0  0  0  0  0  0  0  0  0  0
    9.8728   -0.4002   25.6875 N   0  0  0  0  0  0  0  0  0  0  0  0
   11.1666   -0.4700   26.0033 N   0  0  0  0  0  0  0  0  0  0  0  0
   11.7632   -1.3021   25.2006 N   0  0  0  0  0  0  0  0  0  0  0  0
   10.8738   -1.7963   24.3355 N   0  0  0  0  0  0  0  0  0  0  0  0
    9.8670    1.3241   22.3310 C   0  0  0  0  0  0  0  0  0  0  0  0
   11.0497    0.5886   22.1741 C   0  0  0  0  0  0  0  0  0  0  0  0
   12.2488    1.2456   21.9437 C   0  0  0  0  0  0  0  0  0  0  0  0
   13.7195    0.3319   21.7976 Cl  0  0  0  0  0  0  0  0  0  0  0  0
   12.3003    2.6287   21.7798 C   0  0  0  0  0  0  0  0  0  0  0  0
   11.1477    3.3616   21.9529 C   0  0  0  0  0  0  0  0  0  0  0  0
    9.9844    2.7253   22.3792 C   0  0  0  0  0  0  0  0  0  0  0  0
    8.9181    3.5723   23.0100 C   0  0  0  0  0  0  0  0  0  0  0  0
    9.0716    4.7677   23.2642 O   0  0  0  0  0  0  0  0  0  0  0  0
  1  2  1  0
  2  3  1  0
  3  4  2  0
  3  5  1  0
  5  6  1  0
  6  7  1  0
  8  7  1  1
  8  9  1  0
  9 10  2  0
  9 11  1  0
 11 12  1  0
 12 13  2  0
 13 14  1  0
 14 15  2  0
 15 16  1  0
 16 17  2  0
 17 18  1  0
 18 19  2  0
 19 20  1  0
 20 21  2  0
 11 22  1  0
 22 23  1  0
 23 24  1  1
 24 25  1  0
 25 26  1  0
 26 27  2  0
 27 28  1  0
 28 29  1  0
  8 30  1  0
 30 31  2  0
 31 32  1  0
 32 33  1  0
 32 34  2  0
 34 35  1  0
 35 36  2  0
 36 37  1  0
 37 38  2  0
 37  6  1  0
 23  8  1  0
 29 25  2  0
 36 30  1  0
 21 12  1  0
 21 16  1  0
M  CHG  1  28  -1
M  END
$$$$

     RDKit          3D

 37 41  0  0  0  0  0  0  0  0999 V2000
   -7.0182    3.6292  -22.4843 C   0  0  0  0  0  0  0  0  0  0  0  0
   -7.7812    2.6802  -23.2650 N   0  0  0  0  0  0  0  0  0  0  0  0
   -7.4963    2.5210  -24.5749 C   0  0  0  0  0  0  0  0  0  0  0  0
   -6.7297    3.2469  -25.1907 O   0  0  0  0  0  0  0  0  0  0  0  0
   -8.1597    1.3614  -25.3254 C   0  0  0  0  0  0  0  0  0  0  0  0
   -8.9874    0.4652  -24.5602 N   0  0  0  0  0  0  0  0  0  0  0  0
   -8.5117   -0.8778  -24.2780 C   0  0  0  0  0  0  0  0  0  0  0  0
   -9.0686   -1.4083  -22.9338 C   0  0  2  0  0  0  0  0  0  0  0  0
   -8.4689   -0.5654  -21.7806 C   0  0  0  0  0  0  0  0  0  0  0  0
   -8.7604    0.5848  -21.5039 O   0  0  0  0  0  0  0  0  0  0  0  0
   -7.5081   -1.3054  -21.1359 N   0  0  0  0  0  0  0  0  0  0  0  0
   -6.6588   -0.7866  -20.1171 C   0  0  0  0  0  0  0  0  0  0  0  0
   -6.8854   -1.1449  -18.8113 C   0  0  0  0  0  0  0  0  0  0  0  0
   -6.1178   -0.7586  -17.7623 N   0  0  0  0  0  0  0  0  0  0  0  0
   -5.0912    0.0173  -18.0102 C   0  0  0  0  0  0  0  0  0  0  0  0
   -4.7454    0.4765  -19.3136 C   0  0  0  0  0  0  0  0  0  0  0  0
   -3.6602    1.3667  -19.5277 C   0  0  0  0  0  0  0  0  0  0  0  0
   -3.3275    1.7610  -20.7921 C   0  0  0  0  0  0  0  0  0  0  0  0
   -4.0579    1.2859  -21.9033 C   0  0  0  0  0  0  0  0  0  0  0  0
   -5.1392    0.4585  -21.7209 C   0  0  0  0  0  0  0  0  0  0  0  0
   -5.5288    0.0468  -20.4138 C   0  0  0  0  0  0  0  0  0  0  0  0
   -7.2305   -2.5623  -21.8041 C   0  0  0  0  0  0  0  0  0  0  0  0
   -8.5320   -2.8179  -22.5665 C   0  0  2  0  0  0  0  0  0  0  0  0
   -8.3767   -3.8152  -23.7091 C   0  0  0  0  0  0  0  0  0  0  0  0
   -9.6132   -4.0110  -24.3685 O   0  0  0  0  0  0  0  0  0  0  0  0
  -10.1929   -5.3045  -24.2110 C   0  0  0  0  0  0  0  0  0  0  0  0
   -9.5447   -6.2978  -25.1744 C   0  0  0  0  0  0  0  0  0  0  0  0
  -11.6790   -5.1456  -24.4704 C   0  0  0  0  0  0  0  0  0  0  0  0
  -10.5746   -1.2885  -23.0308 C   0  0  0  0  0  0  0  0  0  0  0  0
  -11.4650   -2.2477  -22.5401 C   0  0  0  0  0  0  0  0  0  0  0  0
  -12.8164   -1.9650  -22.5138 C   0  0  0  0  0  0  0  0  0  0  0  0
  -13.6496   -2.8683  -21.9618 F   0  0  0  0  0  0  0  0  0  0  0  0
  -13.3647   -0.7910  -23.0136 C   0  0  0  0  0  0  0  0  0  0  0  0
  -12.4968    0.1185  -23.5822 C   0  0  0  0  0  0  0  0  0  0  0  0
  -11.1280   -0.1391  -23.6139 C   0  0  0  0  0  0  0  0  0  0  0  0
  -10.2540    0.8823  -24.2605 C   0  0  0  0  0  0  0  0  0  0  0  0
  -10.6392    2.0214  -24.4870 O   0  0  0  0  0  0  0  0  0  0  0  0
  1  2  1  0
  2  3  1  0
  3  4  2  0
  3  5  1  0
  5  6  1  0
  6  7  1  0
  8  7  1  6
  8  9  1  0
  9 10  2  0
  9 11  1  0
 11 12  1  0
 12 13  2  0
 13 14  1  0
 14 15  2  0
 15 16  1  0
 16 17  2  0
 17 18  1  0
 18 19  2  0
 19 20  1  0
 20 21  2  0
 11 22  1  0
 22 23  1  0
 23 24  1  6
 24 25  1  0
 25 26  1  0
 26 27  1  0
 26 28  1  0
  8 29  1  0
 29 30  2  0
 30 31  1  0
 31 32  1  0
 31 33  2  0
 33 34  1  0
 34 35  2  0
 35 36  1  0
 36 37  2  0
 36  6  1  0
 23  8  1  0
 35 29  1  0
 21 12  1  0
 21 16  1  0
M  END
$$$$

     RDKit          3D

 36 41  0  0  0  0  0  0  0  0999 V2000
  -10.8375    4.6347  -25.3267 C   0  0  0  0  0  0  0  0  0  0  0  0
   -9.3414    4.4176  -25.5551 C   0  0  0  0  0  0  0  0  0  0  0  0
   -8.6730    3.7932  -24.4218 N   0  0  0  0  0  0  0  0  0  0  0  0
   -8.0938    4.5784  -23.5023 N   0  0  0  0  0  0  0  0  0  0  0  0
   -7.6102    3.7516  -22.5838 C   0  0  0  0  0  0  0  0  0  0  0  0
   -7.8886    2.4128  -22.9159 C   0  0  0  0  0  0  0  0  0  0  0  0
   -8.5956    2.4732  -24.0936 C   0  0  0  0  0  0  0  0  0  0  0  0
   -9.1128    1.3362  -24.9297 C   0  0  0  0  0  0  0  0  0  0  0  0
   -9.6567    0.2523  -24.1366 N   0  0  0  0  0  0  0  0  0  0  0  0
   -8.9337   -1.0021  -24.0316 C   0  0  0  0  0  0  0  0  0  0  0  0
   -9.2189   -1.7370  -22.6927 C   0  0  2  0  0  0  0  0  0  0  0  0
   -8.6541   -0.9185  -21.4975 C   0  0  0  0  0  0  0  0  0  0  0  0
   -9.1910    0.0059  -20.9213 O   0  0  0  0  0  0  0  0  0  0  0  0
   -7.3999   -1.4053  -21.1881 N   0  0  0  0  0  0  0  0  0  0  0  0
   -6.6058   -0.8163  -20.1665 C   0  0  0  0  0  0  0  0  0  0  0  0
   -6.9098   -1.0454  -18.8471 C   0  0  0  0  0  0  0  0  0  0  0  0
   -6.2047   -0.5488  -17.8002 N   0  0  0  0  0  0  0  0  0  0  0  0
   -5.1680    0.2076  -18.0749 C   0  0  0  0  0  0  0  0  0  0  0  0
   -4.7349    0.5272  -19.3937 C   0  0  0  0  0  0  0  0  0  0  0  0
   -3.6114    1.3632  -19.6360 C   0  0  0  0  0  0  0  0  0  0  0  0
   -3.2298    1.6625  -20.9156 C   0  0  0  0  0  0  0  0  0  0  0  0
   -3.9529    1.1360  -22.0095 C   0  0  0  0  0  0  0  0  0  0  0  0
   -5.0445    0.3232  -21.7994 C   0  0  0  0  0  0  0  0  0  0  0  0
   -5.4676   -0.0018  -20.4823 C   0  0  0  0  0  0  0  0  0  0  0  0
   -7.0258   -2.5854  -21.9479 C   0  0  0  0  0  0  0  0  0  0  0  0
   -8.3629   -3.0391  -22.5806 C   0  0  2  0  0  0  0  0  0  0  0  0
   -8.1688   -3.8558  -23.8635 C   0  0  0  0  0  0  0  0  0  0  0  0
  -10.7331   -1.8725  -22.5769 C   0  0  0  0  0  0  0  0  0  0  0  0
  -11.3602   -2.9358  -21.9064 C   0  0  0  0  0  0  0  0  0  0  0  0
  -12.7298   -2.8822  -21.7325 C   0  0  0  0  0  0  0  0  0  0  0  0
  -13.3981   -3.7891  -21.0121 F   0  0  0  0  0  0  0  0  0  0  0  0
  -13.5147   -1.8572  -22.2335 C   0  0  0  0  0  0  0  0  0  0  0  0
  -12.9190   -0.7983  -22.8725 C   0  0  0  0  0  0  0  0  0  0  0  0
  -11.5338   -0.8095  -23.0373 C   0  0  0  0  0  0  0  0  0  0  0  0
  -10.9476    0.3753  -23.7248 C   0  0  0  0  0  0  0  0  0  0  0  0
  -11.6065    1.3907  -23.9287 O   0  0  0  0  0  0  0  0  0  0  0  0
  1  2  1  0
  2  3  1  0
  3  4  1  0
  4  5  2  0
  5  6  1  0
  6  7  2  0
  7  8  1  0
  8  9  1  0
  9 10  1  0
 11 10  1  6
 11 12  1  0
 12 13  2  0
 12 14  1  0
 14 15  1  0
 15 16  2  0
 16 17  1  0
 17 18  2  0
 18 19  1  0
 19 20  2  0
 20 21  1  0
 21 22  2  0
 22 23  1  0
 23 24  2  0
 14 25  1  0
 25 26  1  0
 26 27  1  6
 11 28  1  0
 28 29  2  0
 29 30  1  0
 30 31  1  0
 30 32  2  0
 32 33  1  0
 33 34  2  0
 34 35  1  0
 35 36  2  0
  7  3  1  0
 35  9  1  0
 26 11  1  0
 34 28  1  0
 24 15  1  0
 24 19  1  0
M  END
>  <cnnaffinities>  (95) 
[7.14207, 6.86118, 6.72483]

>  <score>  (95) 
7.14207

>  <index>  (95) 
7

>  <Smiles>  (95) 
C(C(n1nc(c(c1C(N1C([C@@]2(C(=O)N(c3c(nc(c4c(c(c(c(c34)[H])[H])[H])[H])[H])[H])C([C@@]2(C([H])([H])[H])[H])([H])[H])c2c(c(F)c(c(c2C1=O)[H])[H])[H])([H])[H])([H])[H])[H])[H])([H])[H])([H])([H])[H]

>  <h>  (95) 
<NA>

>  <Training>  (95) 
True

>  <Success>  (95) 
True

>  <enamine_searched>  (95) 
False

>  <enamine_id>  (95) 
nan

$$$$

     RDKit          3D

 29 31  0  0  0  0  0  0  0  0999 V2000
   -6.7440    0.6697  -24.1192 C   0  0  0  0  0  0  0  0  0  0  0  0
   -6.7419   -0.6249  -24.4473 C   0  0  0  0  0  0  0  0  0  0  0  0
   -7.2848   -1.8216  -23.6539 C   0  0  0  0  0  0  0  0  0  0  0  0
   -8.2765   -1.5584  -22.6206 N   0  0  0  0  0  0  0  0  0  0  0  0
   -7.8322   -0.8890  -21.4796 C   0  0  0  0  0  0  0  0  0  0  0  0
   -8.2324    0.1997  -21.1369 O   0  0  0  0  0  0  0  0  0  0  0  0
   -6.8599   -1.5982  -20.7998 N   0  0  0  0  0  0  0  0  0  0  0  0
   -6.1073   -0.9946  -19.7646 C   0  0  0  0  0  0  0  0  0  0  0  0
   -6.3640   -1.2483  -18.4433 C   0  0  0  0  0  0  0  0  0  0  0  0
   -5.6941   -0.6779  -17.4075 N   0  0  0  0  0  0  0  0  0  0  0  0
   -4.7297    0.1681  -17.6982 C   0  0  0  0  0  0  0  0  0  0  0  0
   -4.3630    0.5253  -19.0325 C   0  0  0  0  0  0  0  0  0  0  0  0
   -3.3429    1.4702  -19.3343 C   0  0  0  0  0  0  0  0  0  0  0  0
   -3.0677    1.8019  -20.6337 C   0  0  0  0  0  0  0  0  0  0  0  0
   -3.7890    1.2163  -21.6969 C   0  0  0  0  0  0  0  0  0  0  0  0
   -4.7383    0.2580  -21.4422 C   0  0  0  0  0  0  0  0  0  0  0  0
   -5.0712   -0.0749  -20.0985 C   0  0  0  0  0  0  0  0  0  0  0  0
   -9.6267   -1.2970  -22.9802 C   0  0  0  0  0  0  0  0  0  0  0  0
   -9.9986   -0.1895  -23.7358 C   0  0  0  0  0  0  0  0  0  0  0  0
  -11.3430    0.0337  -24.0040 C   0  0  0  0  0  0  0  0  0  0  0  0
  -12.3156   -0.8391  -23.5302 C   0  0  0  0  0  0  0  0  0  0  0  0
  -11.9205   -1.9335  -22.7709 C   0  0  0  0  0  0  0  0  0  0  0  0
  -13.1139   -3.0455  -22.1724 Cl  0  0  0  0  0  0  0  0  0  0  0  0
  -10.5879   -2.1602  -22.4647 C   0  0  0  0  0  0  0  0  0  0  0  0
   -6.1625   -0.9859  -25.7941 C   0  0  0  0  0  0  0  0  0  0  0  0
   -6.2154   -0.2400  -26.7668 O   0  0  0  0  0  0  0  0  0  0  0  0
   -5.5744   -2.2109  -25.8330 N   0  0  0  0  0  0  0  0  0  0  0  0
   -5.1429   -2.8125  -27.0810 C   0  0  0  0  0  0  0  0  0  0  0  0
   -6.3189   -3.2803  -27.9435 C   0  0  0  0  0  0  0  0  0  0  0  0
  1  2  2  0
  2  3  1  0
  3  4  1  0
  4  5  1  0
  5  6  2  0
  5  7  1  0
  7  8  1  0
  8  9  2  0
  9 10  1  0
 10 11  2  0
 11 12  1  0
 12 13  2  0
 13 14  1  0
 14 15  2  0
 15 16  1  0
 16 17  2  0
  4 18  1  0
 18 19  2  0
 19 20  1  0
 20 21  2  0
 21 22  1  0
 22 23  1  0
 22 24  2  0
  2 25  1  0
 25 26  2  0
 25 27  1  0
 27 28  1  0
 28 29  1  0
 17  8  1  0
 24 18  1  0
 17 12  1  0
M  END
$$$$

     RDKit          3D

 34 38  0  0  0  0  0  0  0  0999 V2000
   13.6145    0.7520   22.6483 C   0  0  0  0  0  0  0  0  0  0  0  0
   13.2482   -0.6388   22.8036 N   0  0  0  0  0  0  0  0  0  0  0  0
   12.8633   -1.3381   21.7124 C   0  0  0  0  0  0  0  0  0  0  0  0
   13.0867   -1.0003   20.5660 O   0  0  0  0  0  0  0  0  0  0  0  0
   12.0624   -2.5705   21.9701 C   0  0  0  0  0  0  0  0  0  0  0  0
   10.7876   -2.3342   22.5987 N   0  0  0  0  0  0  0  0  0  0  0  0
    9.6243   -2.1460   21.7396 C   0  0  0  0  0  0  0  0  0  0  0  0
    8.4611   -1.3874   22.4404 C   0  0  2  0  0  0  0  0  0  0  0  0
    7.2186   -1.5700   21.5562 C   0  0  0  0  0  0  0  0  0  0  0  0
    6.6743   -2.6258   21.3036 O   0  0  0  0  0  0  0  0  0  0  0  0
    6.8087   -0.3424   21.0664 N   0  0  0  0  0  0  0  0  0  0  0  0
    5.8683   -0.2329   20.0134 C   0  0  0  0  0  0  0  0  0  0  0  0
    6.1020   -0.8187   18.7970 C   0  0  0  0  0  0  0  0  0  0  0  0
    5.3229   -0.6301   17.7030 N   0  0  0  0  0  0  0  0  0  0  0  0
    4.2684    0.1390   17.8298 C   0  0  0  0  0  0  0  0  0  0  0  0
    3.8989    0.7942   19.0392 C   0  0  0  0  0  0  0  0  0  0  0  0
    2.7296    1.5936   19.1508 C   0  0  0  0  0  0  0  0  0  0  0  0
    2.4013    2.1719   20.3463 C   0  0  0  0  0  0  0  0  0  0  0  0
    3.2367    2.0066   21.4765 C   0  0  0  0  0  0  0  0  0  0  0  0
    4.3824    1.2542   21.3875 C   0  0  0  0  0  0  0  0  0  0  0  0
    4.7286    0.6161   20.1690 C   0  0  0  0  0  0  0  0  0  0  0  0
    7.8094    0.6952   21.2479 C   0  0  0  0  0  0  0  0  0  0  0  0
    8.6028    0.1805   22.4582 C   0  0  2  0  0  0  0  0  0  0  0  0
   10.0384    0.6744   22.5127 C   0  0  0  0  0  0  0  0  0  0  0  0
   10.1557    2.4500   22.7378 Cl  0  0  0  0  0  0  0  0  0  0  0  0
    8.2764   -1.9826   23.8379 C   0  0  0  0  0  0  0  0  0  0  0  0
    7.0566   -1.8894   24.5299 C   0  0  0  0  0  0  0  0  0  0  0  0
    6.9397   -2.3826   25.8239 C   0  0  0  0  0  0  0  0  0  0  0  0
    5.4340   -2.2308   26.6898 Cl  0  0  0  0  0  0  0  0  0  0  0  0
    8.0096   -3.0047   26.4615 C   0  0  0  0  0  0  0  0  0  0  0  0
    9.2105   -3.1010   25.7928 C   0  0  0  0  0  0  0  0  0  0  0  0
    9.3512   -2.5789   24.5122 C   0  0  0  0  0  0  0  0  0  0  0  0
   10.7074   -2.6627   23.9133 C   0  0  0  0  0  0  0  0  0  0  0  0
   11.7086   -2.9712   24.5557 O   0  0  0  0  0  0  0  0  0  0  0  0
  1  2  1  0
  2  3  1  0
  3  4  2  0
  3  5  1  0
  5  6  1  0
  6  7  1  0
  8  7  1  6
  8  9  1  0
  9 10  2  0
  9 11  1  0
 11 12  1  0
 12 13  2  0
 13 14  1  0
 14 15  2  0
 15 16  1  0
 16 17  2  0
 17 18  1  0
 18 19  2  0
 19 20  1  0
 20 21  2  0
 11 22  1  0
 22 23  1  0
 23 24  1  6
 24 25  1  0
  8 26  1  0
 26 27  2  0
 27 28  1  0
 28 29  1  0
 28 30  2  0
 30 31  1  0
 31 32  2  0
 32 33  1  0
 33 34  2  0
 33  6  1  0
 23  8  1  0
 32 26  1  0
 21 12  1  0
 21 16  1  0
M  END
>  <cnnaffinities>  (97) 
[6.49988, 6.42414, 6.20779, 6.10267]

>  <score>  (97) 
6.49988

>  <index>  (97) 
44

>  <Smiles>  (97) 
C(N(C(=O)C(N1C([C@@]2(C(=O)N(c3c(nc(c4c(c(c(c(c34)[H])[H])[H])[H])[H])[H])C([C@@]2(C(Cl)([H])[H])[H])([H])[H])c2c(c(Cl)c(c(c2C1=O)[H])[H])[H])([H])[H])([H])[H])[H])([H])([H])[H]

>  <h>  (97) 
<NA>

>  <Training>  (97) 
True

>  <Success>  (97) 
True

>  <enamine_searched>  (97) 
False

>  <enamine_id>  (97) 
nan

$$$$

     RDKit          3D

 32 35  0  0  0  0  0  0  0  0999 V2000
   -7.7582   -8.3898  -25.4525 C   0  0  0  0  0  0  0  0  0  0  0  0
   -7.3612   -7.9367  -24.0443 C   0  0  0  0  0  0  0  0  0  0  0  0
   -6.8674   -6.5131  -24.0683 C   0  0  0  0  0  0  0  0  0  0  0  0
   -5.6808   -6.2529  -24.1455 O   0  0  0  0  0  0  0  0  0  0  0  0
   -7.8425   -5.5457  -24.0697 N   0  0  0  0  0  0  0  0  0  0  0  0
   -7.5977   -4.1741  -24.2844 C   0  0  0  0  0  0  0  0  0  0  0  0
   -6.6061   -3.7472  -25.1667 C   0  0  0  0  0  0  0  0  0  0  0  0
   -6.3990   -2.3891  -25.3692 C   0  0  0  0  0  0  0  0  0  0  0  0
   -7.1508   -1.4470  -24.6797 C   0  0  0  0  0  0  0  0  0  0  0  0
   -8.1284   -1.8759  -23.7758 C   0  0  0  0  0  0  0  0  0  0  0  0
   -8.7785   -0.9102  -22.9438 N   0  0  0  0  0  0  0  0  0  0  0  0
   -9.7969   -0.0573  -23.5659 C   0  0  0  0  0  0  0  0  0  0  0  0
  -11.0551   -0.8483  -23.8627 C   0  0  0  0  0  0  0  0  0  0  0  0
  -11.6743   -1.4804  -22.7943 C   0  0  0  0  0  0  0  0  0  0  0  0
  -12.8798   -2.1469  -22.9559 C   0  0  0  0  0  0  0  0  0  0  0  0
  -13.4185   -2.3038  -24.2279 C   0  0  0  0  0  0  0  0  0  0  0  0
  -12.7539   -1.7711  -25.3208 C   0  0  0  0  0  0  0  0  0  0  0  0
  -11.5933   -1.0297  -25.1351 C   0  0  0  0  0  0  0  0  0  0  0  0
   -8.1707   -0.4766  -21.7746 C   0  0  0  0  0  0  0  0  0  0  0  0
   -8.3922    0.6202  -21.3006 O   0  0  0  0  0  0  0  0  0  0  0  0
   -7.2550   -1.4854  -21.0669 C   0  0  0  0  0  0  0  0  0  0  0  0
   -6.4754   -0.8851  -19.9361 C   0  0  0  0  0  0  0  0  0  0  0  0
   -6.7425   -1.1684  -18.6230 C   0  0  0  0  0  0  0  0  0  0  0  0
   -6.0704   -0.6555  -17.5567 N   0  0  0  0  0  0  0  0  0  0  0  0
   -5.0885    0.1749  -17.8130 C   0  0  0  0  0  0  0  0  0  0  0  0
   -4.7010    0.5592  -19.1274 C   0  0  0  0  0  0  0  0  0  0  0  0
   -3.6437    1.4700  -19.3697 C   0  0  0  0  0  0  0  0  0  0  0  0
   -3.3368    1.8666  -20.6415 C   0  0  0  0  0  0  0  0  0  0  0  0
   -4.0324    1.3201  -21.7407 C   0  0  0  0  0  0  0  0  0  0  0  0
   -5.0354    0.4087  -21.5363 C   0  0  0  0  0  0  0  0  0  0  0  0
   -5.4145    0.0226  -20.2209 C   0  0  0  0  0  0  0  0  0  0  0  0
   -8.3773   -3.2321  -23.6105 C   0  0  0  0  0  0  0  0  0  0  0  0
  1  2  1  0
  2  3  1  0
  3  4  2  0
  3  5  1  0
  5  6  1  0
  6  7  2  0
  7  8  1  0
  8  9  2  0
  9 10  1  0
 10 11  1  0
 11 12  1  0
 12 13  1  0
 13 14  2  0
 14 15  1  0
 15 16  2  0
 16 17  1  0
 17 18  2  0
 11 19  1  0
 19 20  2  0
 19 21  1  0
 21 22  1  0
 22 23  2  0
 23 24  1  0
 24 25  2  0
 25 26  1  0
 26 27  2  0
 27 28  1  0
 28 29  2  0
 29 30  1  0
 30 31  2  0
 10 32  2  0
 32  6  1  0
 18 13  1  0
 31 22  1  0
 31 26  1  0
M  END
$$$$

     RDKit          3D

 35 39  0  0  0  0  0  0  0  0999 V2000
    7.1641    5.1937   27.1331 C   0  0  0  0  0  0  0  0  0  0  0  0
    7.3369    4.9294   25.7201 N   0  0  0  0  0  0  0  0  0  0  0  0
    6.6604    3.8940   25.1643 C   0  0  0  0  0  0  0  0  0  0  0  0
    5.9592    3.1350   25.8205 O   0  0  0  0  0  0  0  0  0  0  0  0
    6.8244    3.7427   23.6522 C   0  0  0  0  0  0  0  0  0  0  0  0
    7.9581    2.9090   23.3087 N   0  0  0  0  0  0  0  0  0  0  0  0
    7.8954    1.4711   23.5229 C   0  0  0  0  0  0  0  0  0  0  0  0
    8.5702    0.7142   22.3500 C   0  0  2  0  0  0  0  0  0  0  0  0
    7.7231    0.9714   21.0769 C   0  0  0  0  0  0  0  0  0  0  0  0
    7.6670    1.9686   20.3978 O   0  0  0  0  0  0  0  0  0  0  0  0
    6.9490   -0.1464   20.8396 N   0  0  0  0  0  0  0  0  0  0  0  0
    5.9185   -0.1083   19.8711 C   0  0  0  0  0  0  0  0  0  0  0  0
    6.0717   -0.7808   18.6875 C   0  0  0  0  0  0  0  0  0  0  0  0
    5.2355   -0.6686   17.6285 N   0  0  0  0  0  0  0  0  0  0  0  0
    4.1827    0.1024   17.7760 C   0  0  0  0  0  0  0  0  0  0  0  0
    3.8531    0.7795   18.9841 C   0  0  0  0  0  0  0  0  0  0  0  0
    2.6705    1.5546   19.1099 C   0  0  0  0  0  0  0  0  0  0  0  0
    2.3360    2.1298   20.3042 C   0  0  0  0  0  0  0  0  0  0  0  0
    3.1867    1.9846   21.4228 C   0  0  0  0  0  0  0  0  0  0  0  0
    4.3588    1.2766   21.3164 C   0  0  0  0  0  0  0  0  0  0  0  0
    4.7283    0.6582   20.0853 C   0  0  0  0  0  0  0  0  0  0  0  0
    7.1926   -1.2552   21.7320 C   0  0  0  0  0  0  0  0  0  0  0  0
    8.4626   -0.8338   22.4883 C   0  0  2  0  0  0  0  0  0  0  0  0
    8.4858   -1.3808   23.9165 C   0  0  0  0  0  0  0  0  0  0  0  0
    9.6663   -1.0457   24.6100 O   0  0  0  0  0  0  0  0  0  0  0  0
   10.7123   -1.9675   24.4219 C   0  0  0  0  0  0  0  0  0  0  0  0
    9.9855    1.2747   22.2814 C   0  0  0  0  0  0  0  0  0  0  0  0
   11.0957    0.4754   21.9887 C   0  0  0  0  0  0  0  0  0  0  0  0
   12.3481    1.0473   21.8673 C   0  0  0  0  0  0  0  0  0  0  0  0
   13.7008    0.0005   21.5667 Cl  0  0  0  0  0  0  0  0  0  0  0  0
   12.5509    2.4260   21.9450 C   0  0  0  0  0  0  0  0  0  0  0  0
   11.4627    3.2289   22.2239 C   0  0  0  0  0  0  0  0  0  0  0  0
   10.2174    2.6491   22.4885 C   0  0  0  0  0  0  0  0  0  0  0  0
    9.1462    3.5291   23.0528 C   0  0  0  0  0  0  0  0  0  0  0  0
    9.3218    4.7244   23.2861 O   0  0  0  0  0  0  0  0  0  0  0  0
  1  2  1  0
  2  3  1  0
  3  4  2  0
  3  5  1  0
  5  6  1  0
  6  7  1  0
  8  7  1  1
  8  9  1  0
  9 10  2  0
  9 11  1  0
 11 12  1  0
 12 13  2  0
 13 14  1  0
 14 15  2  0
 15 16  1  0
 16 17  2  0
 17 18  1  0
 18 19  2  0
 19 20  1  0
 20 21  2  0
 11 22  1  0
 22 23  1  0
 23 24  1  1
 24 25  1  0
 25 26  1  0
  8 27  1  0
 27 28  2  0
 28 29  1  0
 29 30  1  0
 29 31  2  0
 31 32  1  0
 32 33  2  0
 33 34  1  0
 34 35  2  0
 34  6  1  0
 23  8  1  0
 33 27  1  0
 21 12  1  0
 21 16  1  0
M  END
$$$$

     RDKit          3D

 38 42  0  0  0  0  0  0  0  0999 V2000
    9.9552   -2.8349   26.3937 C   0  0  0  0  0  0  0  0  0  0  0  0
    8.6847   -3.3472   25.7283 C   0  0  0  0  0  0  0  0  0  0  0  0
    8.6624   -3.0828   23.9586 S   0  0  0  0  0  0  0  0  0  0  0  0
    9.9254   -3.5566   23.4076 O   0  0  0  0  0  0  0  0  0  0  0  0
    7.4038   -3.6150   23.4600 O   0  0  0  0  0  0  0  0  0  0  0  0
    8.6154   -1.3838   23.8497 N   0  0  0  0  0  0  0  0  0  0  0  0
    8.5346   -0.8493   22.4727 C   0  0  1  0  0  0  0  0  0  0  0  0
    7.2021   -1.1938   21.7936 C   0  0  0  0  0  0  0  0  0  0  0  0
    7.0214   -0.0933   20.8746 N   0  0  0  0  0  0  0  0  0  0  0  0
    6.0128   -0.0417   19.8828 C   0  0  0  0  0  0  0  0  0  0  0  0
    6.1972   -0.6941   18.6924 C   0  0  0  0  0  0  0  0  0  0  0  0
    5.3645   -0.5990   17.6278 N   0  0  0  0  0  0  0  0  0  0  0  0
    4.2911    0.1440   17.7669 C   0  0  0  0  0  0  0  0  0  0  0  0
    3.9387    0.8152   18.9731 C   0  0  0  0  0  0  0  0  0  0  0  0
    2.7570    1.5951   19.0836 C   0  0  0  0  0  0  0  0  0  0  0  0
    2.4047    2.1613   20.2770 C   0  0  0  0  0  0  0  0  0  0  0  0
    3.2234    1.9827   21.4142 C   0  0  0  0  0  0  0  0  0  0  0  0
    4.3909    1.2661   21.3252 C   0  0  0  0  0  0  0  0  0  0  0  0
    4.7960    0.6870   20.0888 C   0  0  0  0  0  0  0  0  0  0  0  0
    7.8495    0.9897   21.1126 C   0  0  0  0  0  0  0  0  0  0  0  0
    7.8730    1.9809   20.4270 O   0  0  0  0  0  0  0  0  0  0  0  0
    8.6364    0.6944   22.4168 C   0  0  1  0  0  0  0  0  0  0  0  0
    7.8680    1.3693   23.5822 C   0  0  0  0  0  0  0  0  0  0  0  0
    7.8697    2.8165   23.4123 N   0  0  0  0  0  0  0  0  0  0  0  0
    6.6833    3.5907   23.7248 C   0  0  0  0  0  0  0  0  0  0  0  0
    6.5333    3.8327   25.2297 C   0  0  0  0  0  0  0  0  0  0  0  0
    5.7916    3.1693   25.9336 O   0  0  0  0  0  0  0  0  0  0  0  0
    7.3002    4.8384   25.7133 N   0  0  0  0  0  0  0  0  0  0  0  0
    7.1226    5.2734   27.0807 C   0  0  0  0  0  0  0  0  0  0  0  0
    9.0130    3.5016   23.1456 C   0  0  0  0  0  0  0  0  0  0  0  0
    9.1073    4.7132   23.3473 O   0  0  0  0  0  0  0  0  0  0  0  0
   10.1491    2.6967   22.6191 C   0  0  0  0  0  0  0  0  0  0  0  0
   11.3414    3.3692   22.3383 C   0  0  0  0  0  0  0  0  0  0  0  0
   12.4955    2.6329   22.1411 C   0  0  0  0  0  0  0  0  0  0  0  0
   12.4198    1.2425   22.2235 C   0  0  0  0  0  0  0  0  0  0  0  0
   13.8870    0.3225   22.1581 Cl  0  0  0  0  0  0  0  0  0  0  0  0
   11.2160    0.5739   22.3603 C   0  0  0  0  0  0  0  0  0  0  0  0
   10.0279    1.3033   22.4647 C   0  0  0  0  0  0  0  0  0  0  0  0
  1  2  1  0
  2  3  1  0
  3  4  2  0
  3  5  2  0
  3  6  1  0
  7  6  1  1
  7  8  1  0
  8  9  1  0
  9 10  1  0
 10 11  2  0
 11 12  1  0
 12 13  2  0
 13 14  1  0
 14 15  2  0
 15 16  1  0
 16 17  2  0
 17 18  1  0
 18 19  2  0
  9 20  1  0
 20 21  2  0
 20 22  1  0
 22 23  1  1
 23 24  1  0
 24 25  1  0
 25 26  1  0
 26 27  2  0
 26 28  1  0
 28 29  1  0
 24 30  1  0
 30 31  2  0
 30 32  1  0
 32 33  2  0
 33 34  1  0
 34 35  2  0
 35 36  1  0
 35 37  1  0
 37 38  2  0
 22  7  1  0
 38 32  1  0
 19 10  1  0
 38 22  1  0
 19 14  1  0
M  END
$$$$

     RDKit          3D

 33 37  0  0  0  0  0  0  0  0999 V2000
    5.9745    5.0316   20.8417 C   0  0  0  0  0  0  0  0  0  0  0  0
    7.0687    4.6748   21.7377 N   0  0  0  0  0  0  0  0  0  0  0  0
    6.7566    4.0253   22.8900 C   0  0  0  0  0  0  0  0  0  0  0  0
    5.6153    3.6865   23.1747 O   0  0  0  0  0  0  0  0  0  0  0  0
    7.9134    3.7520   23.8486 C   0  0  0  0  0  0  0  0  0  0  0  0
    8.6992    2.6210   23.4098 N   0  0  0  0  0  0  0  0  0  0  0  0
    8.1633    1.2902   23.6297 C   0  0  0  0  0  0  0  0  0  0  0  0
    8.5644    0.3189   22.4984 C   0  0  2  0  0  0  0  0  0  0  0  0
    7.7925    0.6890   21.2169 C   0  0  0  0  0  0  0  0  0  0  0  0
    7.9291    1.6856   20.5383 O   0  0  0  0  0  0  0  0  0  0  0  0
    6.8689   -0.2988   20.9656 N   0  0  0  0  0  0  0  0  0  0  0  0
    5.9004   -0.1474   19.9464 C   0  0  0  0  0  0  0  0  0  0  0  0
    6.0847   -0.7852   18.7490 C   0  0  0  0  0  0  0  0  0  0  0  0
    5.2614   -0.6547   17.6828 N   0  0  0  0  0  0  0  0  0  0  0  0
    4.2015    0.1047   17.8315 C   0  0  0  0  0  0  0  0  0  0  0  0
    3.8635    0.7794   19.0408 C   0  0  0  0  0  0  0  0  0  0  0  0
    2.6828    1.5591   19.1690 C   0  0  0  0  0  0  0  0  0  0  0  0
    2.3637    2.1558   20.3577 C   0  0  0  0  0  0  0  0  0  0  0  0
    3.2350    2.0436   21.4655 C   0  0  0  0  0  0  0  0  0  0  0  0
    4.3968    1.3177   21.3617 C   0  0  0  0  0  0  0  0  0  0  0  0
    4.7353    0.6545   20.1453 C   0  0  0  0  0  0  0  0  0  0  0  0
    6.7951   -1.3278   21.9771 C   0  0  0  0  0  0  0  0  0  0  0  0
    8.0894   -1.1392   22.7820 C   0  0  2  0  0  0  0  0  0  0  0  0
    7.9301   -1.5466   24.2461 C   0  0  0  0  0  0  0  0  0  0  0  0
   10.0618    0.4448   22.2834 C   0  0  0  0  0  0  0  0  0  0  0  0
   10.7823   -0.5800   21.6621 C   0  0  0  0  0  0  0  0  0  0  0  0
   12.1506   -0.4640   21.5379 C   0  0  0  0  0  0  0  0  0  0  0  0
   12.8344   -1.4996   21.0247 F   0  0  0  0  0  0  0  0  0  0  0  0
   12.8432    0.6995   21.8559 C   0  0  0  0  0  0  0  0  0  0  0  0
   12.1189    1.7499   22.3823 C   0  0  0  0  0  0  0  0  0  0  0  0
   10.7491    1.6194   22.6106 C   0  0  0  0  0  0  0  0  0  0  0  0
   10.0230    2.8177   23.1318 C   0  0  0  0  0  0  0  0  0  0  0  0
   10.5761    3.8980   23.2662 O   0  0  0  0  0  0  0  0  0  0  0  0
  1  2  1  0
  2  3  1  0
  3  4  2  0
  3  5  1  0
  5  6  1  0
  6  7  1  0
  8  7  1  1
  8  9  1  0
  9 10  2  0
  9 11  1  0
 11 12  1  0
 12 13  2  0
 13 14  1  0
 14 15  2  0
 15 16  1  0
 16 17  2  0
 17 18  1  0
 18 19  2  0
 19 20  1  0
 20 21  2  0
 11 22  1  0
 22 23  1  0
 23 24  1  1
  8 25  1  0
 25 26  2  0
 26 27  1  0
 27 28  1  0
 27 29  2  0
 29 30  1  0
 30 31  2  0
 31 32  1  0
 32 33  2  0
 32  6  1  0
 23  8  1  0
 31 25  1  0
 21 12  1  0
 21 16  1  0
M  END
>  <cnnaffinities>  (101) 
[6.00977, 6.07412, 5.84172, 5.86359]

>  <score>  (101) 
6.00977

>  <index>  (101) 
47

>  <Smiles>  (101) 
C(N(C(=O)C(N1C([C@@]2(C(=O)N(c3c(nc(c4c(c(c(c(c34)[H])[H])[H])[H])[H])[H])C([C@@]2(C([H])([H])[H])[H])([H])[H])c2c(c(F)c(c(c2C1=O)[H])[H])[H])([H])[H])([H])[H])[H])([H])([H])[H]

>  <h>  (101) 
<NA>

>  <Training>  (101) 
True

>  <Success>  (101) 
True

>  <enamine_searched>  (101) 
False

>  <enamine_id>  (101) 
nan

$$$$

     RDKit          3D

 21 23  0  0  0  0  0  0  0  0999 V2000
    6.9263    4.0133   24.9469 C   0  0  0  0  0  0  0  0  0  0  0  0
    7.4571    2.8838   24.0841 C   0  0  1  0  0  0  0  0  0  0  0  0
    8.4806    3.3830   23.0582 C   0  0  0  0  0  0  0  0  0  0  0  0
    9.3477    2.2692   22.4430 C   0  0  0  0  0  0  0  0  0  0  0  0
    8.6681    0.9848   22.2438 N   0  0  0  0  0  0  0  0  0  0  0  0
    7.8099    0.8874   21.1692 C   0  0  0  0  0  0  0  0  0  0  0  0
    7.8003    1.7440   20.3058 O   0  0  0  0  0  0  0  0  0  0  0  0
    6.8812   -0.3439   21.0551 C   0  0  0  0  0  0  0  0  0  0  0  0
    5.8616   -0.1936   19.9579 C   0  0  0  0  0  0  0  0  0  0  0  0
    6.0435   -0.8075   18.7475 C   0  0  0  0  0  0  0  0  0  0  0  0
    5.2359   -0.6755   17.6613 N   0  0  0  0  0  0  0  0  0  0  0  0
    4.1709    0.0763   17.8027 C   0  0  0  0  0  0  0  0  0  0  0  0
    3.8208    0.7301   19.0160 C   0  0  0  0  0  0  0  0  0  0  0  0
    2.6281    1.4839   19.1481 C   0  0  0  0  0  0  0  0  0  0  0  0
    2.3028    2.0938   20.3279 C   0  0  0  0  0  0  0  0  0  0  0  0
    3.1842    2.0066   21.4259 C   0  0  0  0  0  0  0  0  0  0  0  0
    4.3533    1.2923   21.3224 C   0  0  0  0  0  0  0  0  0  0  0  0
    4.6966    0.6126   20.1218 C   0  0  0  0  0  0  0  0  0  0  0  0
    8.6421    0.0976   23.3917 C   0  0  0  0  0  0  0  0  0  0  0  0
    7.7395    0.5621   24.5418 C   0  0  0  0  0  0  0  0  0  0  0  0
    7.9889    1.8884   24.9534 O   0  0  0  0  0  0  0  0  0  0  0  0
  2  1  1  1
  2  3  1  0
  3  4  1  0
  4  5  1  0
  5  6  1  0
  6  7  2  0
  6  8  1  0
  8  9  1  0
  9 10  2  0
 10 11  1  0
 11 12  2  0
 12 13  1  0
 13 14  2  0
 14 15  1  0
 15 16  2  0
 16 17  1  0
 17 18  2  0
  5 19  1  0
 19 20  1  0
 20 21  1  0
 21  2  1  0
 18  9  1  0
 18 13  1  0
M  END
$$$$

     RDKit          3D

 26 29  0  0  0  0  0  0  0  0999 V2000
  -12.8254   -2.1536  -22.6989 C   0  0  0  0  0  0  0  0  0  0  0  0
  -11.3998   -2.4008  -22.8872 N   0  0  0  0  0  0  0  0  0  0  0  0
  -10.4129   -1.7136  -22.0850 C   0  0  0  0  0  0  0  0  0  0  0  0
   -9.2085   -1.3036  -22.9390 C   0  0  1  0  0  0  0  0  0  0  0  0
   -8.1747   -0.6017  -22.0580 C   0  0  0  0  0  0  0  0  0  0  0  0
   -8.0471    0.6067  -22.0662 O   0  0  0  0  0  0  0  0  0  0  0  0
   -7.4073   -1.3707  -21.2068 N   0  0  0  0  0  0  0  0  0  0  0  0
   -6.5903   -0.8116  -20.1847 C   0  0  0  0  0  0  0  0  0  0  0  0
   -6.8812   -1.0548  -18.8631 C   0  0  0  0  0  0  0  0  0  0  0  0
   -6.1996   -0.5444  -17.8077 N   0  0  0  0  0  0  0  0  0  0  0  0
   -5.1632    0.2219  -18.0662 C   0  0  0  0  0  0  0  0  0  0  0  0
   -4.7265    0.5291  -19.3854 C   0  0  0  0  0  0  0  0  0  0  0  0
   -3.5922    1.3532  -19.6242 C   0  0  0  0  0  0  0  0  0  0  0  0
   -3.1818    1.6142  -20.9066 C   0  0  0  0  0  0  0  0  0  0  0  0
   -3.8824    1.0571  -21.9985 C   0  0  0  0  0  0  0  0  0  0  0  0
   -4.9801    0.2580  -21.7915 C   0  0  0  0  0  0  0  0  0  0  0  0
   -5.4462   -0.0097  -20.4777 C   0  0  0  0  0  0  0  0  0  0  0  0
   -8.6929   -2.4579  -23.7624 C   0  0  0  0  0  0  0  0  0  0  0  0
   -7.3838   -2.4641  -24.2505 C   0  0  0  0  0  0  0  0  0  0  0  0
   -6.9370   -3.5292  -25.0115 C   0  0  0  0  0  0  0  0  0  0  0  0
   -5.2975   -3.5319  -25.5855 Cl  0  0  0  0  0  0  0  0  0  0  0  0
   -7.7786   -4.5906  -25.3287 C   0  0  0  0  0  0  0  0  0  0  0  0
   -9.0908   -4.5548  -24.8809 C   0  0  0  0  0  0  0  0  0  0  0  0
   -9.5641   -3.4935  -24.1015 C   0  0  0  0  0  0  0  0  0  0  0  0
  -11.0221   -3.4382  -23.7080 C   0  0  0  0  0  0  0  0  0  0  0  0
  -11.8390   -4.2379  -24.1333 O   0  0  0  0  0  0  0  0  0  0  0  0
  1  2  1  0
  2  3  1  0
  3  4  1  0
  4  5  1  1
  5  6  2  0
  5  7  1  0
  7  8  1  0
  8  9  2  0
  9 10  1  0
 10 11  2  0
 11 12  1  0
 12 13  2  0
 13 14  1  0
 14 15  2  0
 15 16  1  0
 16 17  2  0
  4 18  1  0
 18 19  2  0
 19 20  1  0
 20 21  1  0
 20 22  2  0
 22 23  1  0
 23 24  2  0
 24 25  1  0
 25 26  2  0
 25  2  1  0
 17  8  1  0
 24 18  1  0
 17 12  1  0
M  END
>  <cnnaffinities>  (103) 
[5.50472]

>  <score>  (103) 
5.50472

>  <index>  (103) 
58

>  <Smiles>  (103) 
C(N1C([C@@](C(=O)N(c2c(nc(c3c(c(c(c(c23)[H])[H])[H])[H])[H])[H])[H])(c2c(c(Cl)c(c(c2C1=O)[H])[H])[H])[H])([H])[H])([H])([H])[H]

>  <h>  (103) 
<NA>

>  <Training>  (103) 
True

>  <Success>  (103) 
True

>  <enamine_searched>  (103) 
False

>  <enamine_id>  (103) 
nan

$$$$

     RDKit          3D

 22 25  0  0  0  0  0  0  0  0999 V2000
    5.2476   -1.8077   22.1126 O   0  0  0  0  0  0  0  0  0  0  0  0
    6.4226   -1.4887   22.0599 C   0  0  0  0  0  0  0  0  0  0  0  0
    6.8735   -0.4002   21.0573 C   0  0  0  0  0  0  0  0  0  0  0  0
    5.8639   -0.1929   19.9557 C   0  0  0  0  0  0  0  0  0  0  0  0
    6.0352   -0.8148   18.7475 C   0  0  0  0  0  0  0  0  0  0  0  0
    5.2275   -0.6858   17.6634 N   0  0  0  0  0  0  0  0  0  0  0  0
    4.1673    0.0740   17.8028 C   0  0  0  0  0  0  0  0  0  0  0  0
    3.8191    0.7288   19.0167 C   0  0  0  0  0  0  0  0  0  0  0  0
    2.6233    1.4804   19.1484 C   0  0  0  0  0  0  0  0  0  0  0  0
    2.3017    2.0941   20.3270 C   0  0  0  0  0  0  0  0  0  0  0  0
    3.1824    2.0039   21.4259 C   0  0  0  0  0  0  0  0  0  0  0  0
    4.3520    1.2896   21.3236 C   0  0  0  0  0  0  0  0  0  0  0  0
    4.6960    0.6122   20.1218 C   0  0  0  0  0  0  0  0  0  0  0  0
    7.3747   -2.0905   22.8534 N   0  0  0  0  0  0  0  0  0  0  0  0
    7.1130   -3.4195   23.4118 C   0  0  0  0  0  0  0  0  0  0  0  0
    7.4647   -3.4853   24.8957 C   0  0  0  0  0  0  0  0  0  0  0  0
    8.8219   -2.8959   25.1215 C   0  0  0  0  0  0  0  0  0  0  0  0
    9.8220   -3.1966   26.5034 S   0  0  0  0  0  0  0  0  0  0  0  0
   11.0218   -2.1017   25.9189 C   0  0  0  0  0  0  0  0  0  0  0  0
   10.6677   -1.5461   24.7245 C   0  0  0  0  0  0  0  0  0  0  0  0
    9.3966   -2.0100   24.2658 C   0  0  0  0  0  0  0  0  0  0  0  0
    8.7310   -1.5793   22.9849 C   0  0  0  0  0  0  0  0  0  0  0  0
  1  2  2  0
  2  3  1  0
  3  4  1  0
  4  5  2  0
  5  6  1  0
  6  7  2  0
  7  8  1  0
  8  9  2  0
  9 10  1  0
 10 11  2  0
 11 12  1  0
 12 13  2  0
  2 14  1  0
 14 15  1  0
 15 16  1  0
 16 17  1  0
 17 18  1  0
 18 19  1  0
 19 20  2  0
 20 21  1  0
 21 22  1  0
 13  4  1  0
 22 14  1  0
 13  8  1  0
 21 17  2  0
M  END
$$$$

     RDKit          3D

 42 48  0  0  0  0  0  0  0  0999 V2000
    7.0764    4.4742   29.1749 C   0  0  0  0  0  0  0  0  0  0  0  0
    6.6725    3.7380   27.9472 C   0  0  0  0  0  0  0  0  0  0  0  0
    5.8488    2.7505   27.8531 N   0  0  0  0  0  0  0  0  0  0  0  0
    5.7900    2.4188   26.5040 N   0  0  0  0  0  0  0  0  0  0  0  0
    6.5898    3.2197   25.8905 C   0  0  0  0  0  0  0  0  0  0  0  0
    6.8328    3.2836   24.4089 C   0  0  0  0  0  0  0  0  0  0  0  0
    7.9197    2.4515   23.9308 N   0  0  0  0  0  0  0  0  0  0  0  0
    7.7683    1.0005   23.9065 C   0  0  0  0  0  0  0  0  0  0  0  0
    8.4162    0.3718   22.6322 C   0  0  2  0  0  0  0  0  0  0  0  0
    7.6287    0.7840   21.3687 C   0  0  0  0  0  0  0  0  0  0  0  0
    7.6544    1.8441   20.7783 O   0  0  0  0  0  0  0  0  0  0  0  0
    6.8498   -0.2814   20.9804 N   0  0  0  0  0  0  0  0  0  0  0  0
    5.8923   -0.1490   19.9581 C   0  0  0  0  0  0  0  0  0  0  0  0
    6.0830   -0.7855   18.7594 C   0  0  0  0  0  0  0  0  0  0  0  0
    5.2724   -0.6504   17.6838 N   0  0  0  0  0  0  0  0  0  0  0  0
    4.2150    0.1137   17.8343 C   0  0  0  0  0  0  0  0  0  0  0  0
    3.8725    0.7833   19.0439 C   0  0  0  0  0  0  0  0  0  0  0  0
    2.6992    1.5722   19.1546 C   0  0  0  0  0  0  0  0  0  0  0  0
    2.3585    2.1495   20.3458 C   0  0  0  0  0  0  0  0  0  0  0  0
    3.1949    2.0035   21.4743 C   0  0  0  0  0  0  0  0  0  0  0  0
    4.3564    1.2798   21.3846 C   0  0  0  0  0  0  0  0  0  0  0  0
    4.7233    0.6465   20.1585 C   0  0  0  0  0  0  0  0  0  0  0  0
    6.9872   -1.4645   21.7899 C   0  0  0  0  0  0  0  0  0  0  0  0
    8.2726   -1.1779   22.5740 C   0  0  2  0  0  0  0  0  0  0  0  0
    8.3552   -1.9372   23.9071 C   0  0  0  0  0  0  0  0  0  0  0  0
    8.4382   -3.3790   23.7610 N   0  0  0  0  0  0  0  0  0  0  0  0
    7.3826   -4.2205   23.5842 C   0  0  0  0  0  0  0  0  0  0  0  0
    6.0494   -3.9311   23.9487 C   0  0  0  0  0  0  0  0  0  0  0  0
    5.1037   -4.8962   23.6529 C   0  0  0  0  0  0  0  0  0  0  0  0
    5.3955   -6.0560   23.0525 N   0  0  0  0  0  0  0  0  0  0  0  0
    6.6834   -6.2286   22.7847 C   0  0  0  0  0  0  0  0  0  0  0  0
    7.6932   -5.4072   23.0326 N   0  0  0  0  0  0  0  0  0  0  0  0
    9.8441    0.8707   22.5622 C   0  0  0  0  0  0  0  0  0  0  0  0
   10.8784    0.1080   22.0115 C   0  0  0  0  0  0  0  0  0  0  0  0
   12.1792    0.5656   22.0800 C   0  0  0  0  0  0  0  0  0  0  0  0
   13.4375   -0.4743   21.5003 Cl  0  0  0  0  0  0  0  0  0  0  0  0
   12.4830    1.8382   22.5530 C   0  0  0  0  0  0  0  0  0  0  0  0
   11.4506    2.6474   22.9856 C   0  0  0  0  0  0  0  0  0  0  0  0
   10.1510    2.1564   23.0285 C   0  0  0  0  0  0  0  0  0  0  0  0
    9.0930    3.0626   23.5656 C   0  0  0  0  0  0  0  0  0  0  0  0
    9.2701    4.2688   23.6722 O   0  0  0  0  0  0  0  0  0  0  0  0
    7.1936    4.0895   26.7426 O   0  0  0  0  0  0  0  0  0  0  0  0
  1  2  1  0
  2  3  2  0
  3  4  1  0
  4  5  2  0
  5  6  1  0
  6  7  1  0
  7  8  1  0
  9  8  1  1
  9 10  1  0
 10 11  2  0
 10 12  1  0
 12 13  1  0
 13 14  2  0
 14 15  1  0
 15 16  2  0
 16 17  1  0
 17 18  2  0
 18 19  1  0
 19 20  2  0
 20 21  1  0
 21 22  2  0
 12 23  1  0
 23 24  1  0
 24 25  1  1
 25 26  1  0
 26 27  1  0
 27 28  2  0
 28 29  1  0
 29 30  2  0
 30 31  1  0
 31 32  2  0
  9 33  1  0
 33 34  2  0
 34 35  1  0
 35 36  1  0
 35 37  2  0
 37 38  1  0
 38 39  2  0
 39 40  1  0
 40 41  2  0
  5 42  1  0
 42  2  1  0
 40  7  1  0
 24  9  1  0
 32 27  1  0
 39 33  1  0
 22 13  1  0
 22 17  1  0
M  END
>  <cnnaffinities>  (105) 
[6.81634, 6.81537]

>  <score>  (105) 
6.81634

>  <index>  (105) 
51

>  <Smiles>  (105) 
C(c1nnc(C(N2C([C@@]3(C(=O)N(c4c(nc(c5c(c(c(c(c45)[H])[H])[H])[H])[H])[H])C([C@@]3(C(N(c3c(c(nc(n3)[H])[H])[H])[H])([H])[H])[H])([H])[H])c3c(c(Cl)c(c(c3C2=O)[H])[H])[H])([H])[H])([H])[H])o1)([H])([H])[H]

>  <h>  (105) 
<NA>

>  <Training>  (105) 
True

>  <Success>  (105) 
True

>  <enamine_searched>  (105) 
False

>  <enamine_id>  (105) 
nan

$$$$

     RDKit          3D

 34 38  0  0  0  0  0  0  0  0999 V2000
   -7.6595    5.0070  -22.4751 C   0  0  0  0  0  0  0  0  0  0  0  0
   -7.0165    3.6261  -22.4814 C   0  0  0  0  0  0  0  0  0  0  0  0
   -7.7641    2.6446  -23.2552 N   0  0  0  0  0  0  0  0  0  0  0  0
   -7.5031    2.5085  -24.5691 C   0  0  0  0  0  0  0  0  0  0  0  0
   -6.7522    3.2452  -25.1964 O   0  0  0  0  0  0  0  0  0  0  0  0
   -8.1553    1.3490  -25.3256 C   0  0  0  0  0  0  0  0  0  0  0  0
   -8.9868    0.4560  -24.5624 N   0  0  0  0  0  0  0  0  0  0  0  0
   -8.5060   -0.8869  -24.2759 C   0  0  0  0  0  0  0  0  0  0  0  0
   -9.0660   -1.4197  -22.9355 C   0  0  2  0  0  0  0  0  0  0  0  0
   -8.4720   -0.5746  -21.7836 C   0  0  0  0  0  0  0  0  0  0  0  0
   -8.7843    0.5658  -21.5008 O   0  0  0  0  0  0  0  0  0  0  0  0
   -7.5075   -1.3101  -21.1380 N   0  0  0  0  0  0  0  0  0  0  0  0
   -6.6565   -0.7998  -20.1203 C   0  0  0  0  0  0  0  0  0  0  0  0
   -6.8816   -1.1570  -18.8143 C   0  0  0  0  0  0  0  0  0  0  0  0
   -6.1151   -0.7657  -17.7677 N   0  0  0  0  0  0  0  0  0  0  0  0
   -5.0901    0.0127  -18.0104 C   0  0  0  0  0  0  0  0  0  0  0  0
   -4.7532    0.4769  -19.3147 C   0  0  0  0  0  0  0  0  0  0  0  0
   -3.6639    1.3604  -19.5323 C   0  0  0  0  0  0  0  0  0  0  0  0
   -3.3276    1.7614  -20.7922 C   0  0  0  0  0  0  0  0  0  0  0  0
   -4.0683    1.2965  -21.9002 C   0  0  0  0  0  0  0  0  0  0  0  0
   -5.1512    0.4691  -21.7167 C   0  0  0  0  0  0  0  0  0  0  0  0
   -5.5332    0.0404  -20.4143 C   0  0  0  0  0  0  0  0  0  0  0  0
   -7.2229   -2.5626  -21.8062 C   0  0  0  0  0  0  0  0  0  0  0  0
   -8.5294   -2.8251  -22.5616 C   0  0  2  0  0  0  0  0  0  0  0  0
   -8.4228   -3.8212  -23.7079 C   0  0  0  0  0  0  0  0  0  0  0  0
  -10.5757   -1.3000  -23.0418 C   0  0  0  0  0  0  0  0  0  0  0  0
  -11.4698   -2.2576  -22.5528 C   0  0  0  0  0  0  0  0  0  0  0  0
  -12.8246   -1.9821  -22.5043 C   0  0  0  0  0  0  0  0  0  0  0  0
  -13.8666   -3.1246  -21.6965 Cl  0  0  0  0  0  0  0  0  0  0  0  0
  -13.3622   -0.8058  -23.0285 C   0  0  0  0  0  0  0  0  0  0  0  0
  -12.4947    0.1096  -23.5923 C   0  0  0  0  0  0  0  0  0  0  0  0
  -11.1246   -0.1439  -23.6181 C   0  0  0  0  0  0  0  0  0  0  0  0
  -10.2500    0.8782  -24.2575 C   0  0  0  0  0  0  0  0  0  0  0  0
  -10.6413    2.0222  -24.4719 O   0  0  0  0  0  0  0  0  0  0  0  0
  1  2  1  0
  2  3  1  0
  3  4  1  0
  4  5  2  0
  4  6  1  0
  6  7  1  0
  7  8  1  0
  9  8  1  6
  9 10  1  0
 10 11  2  0
 10 12  1  0
 12 13  1  0
 13 14  2  0
 14 15  1  0
 15 16  2  0
 16 17  1  0
 17 18  2  0
 18 19  1  0
 19 20  2  0
 20 21  1  0
 21 22  2  0
 12 23  1  0
 23 24  1  0
 24 25  1  6
  9 26  1  0
 26 27  2  0
 27 28  1  0
 28 29  1  0
 28 30  2  0
 30 31  1  0
 31 32  2  0
 32 33  1  0
 33 34  2  0
 33  7  1  0
 24  9  1  0
 32 26  1  0
 22 13  1  0
 22 17  1  0
M  END
$$$$

     RDKit          3D

 40 45  0  0  0  0  0  0  0  0999 V2000
    5.8335    3.0898   27.3725 C   0  0  0  0  0  0  0  0  0  0  0  0
    5.9470    3.0259   25.9289 N   0  0  0  0  0  0  0  0  0  0  0  0
    6.6689    3.9849   25.2807 C   0  0  0  0  0  0  0  0  0  0  0  0
    7.1831    4.9073   25.8874 O   0  0  0  0  0  0  0  0  0  0  0  0
    6.7892    3.8052   23.7578 C   0  0  0  0  0  0  0  0  0  0  0  0
    7.8878    2.9438   23.3481 N   0  0  0  0  0  0  0  0  0  0  0  0
    7.7977    1.5081   23.5615 C   0  0  0  0  0  0  0  0  0  0  0  0
    8.4821    0.7152   22.4124 C   0  0  2  0  0  0  0  0  0  0  0  0
    7.6814    0.9807   21.1192 C   0  0  0  0  0  0  0  0  0  0  0  0
    7.6519    2.0012   20.4691 O   0  0  0  0  0  0  0  0  0  0  0  0
    6.9478   -0.1481   20.8145 N   0  0  0  0  0  0  0  0  0  0  0  0
    5.9161   -0.0936   19.8504 C   0  0  0  0  0  0  0  0  0  0  0  0
    6.0608   -0.7706   18.6691 C   0  0  0  0  0  0  0  0  0  0  0  0
    5.2146   -0.6642   17.6186 N   0  0  0  0  0  0  0  0  0  0  0  0
    4.1631    0.1091   17.7599 C   0  0  0  0  0  0  0  0  0  0  0  0
    3.8405    0.7877   18.9690 C   0  0  0  0  0  0  0  0  0  0  0  0
    2.6630    1.5713   19.0981 C   0  0  0  0  0  0  0  0  0  0  0  0
    2.3286    2.1412   20.2957 C   0  0  0  0  0  0  0  0  0  0  0  0
    3.1747    1.9787   21.4153 C   0  0  0  0  0  0  0  0  0  0  0  0
    4.3432    1.2661   21.3041 C   0  0  0  0  0  0  0  0  0  0  0  0
    4.7191    0.6641   20.0674 C   0  0  0  0  0  0  0  0  0  0  0  0
    7.1282   -1.2506   21.7360 C   0  0  0  0  0  0  0  0  0  0  0  0
    8.3652   -0.8251   22.5307 C   0  0  2  0  0  0  0  0  0  0  0  0
    8.5276   -1.4393   23.9283 C   0  0  0  0  0  0  0  0  0  0  0  0
    7.3627   -1.4136   24.7853 N   0  0  0  0  0  0  0  0  0  0  0  0
    6.4593   -2.4186   24.9313 C   0  0  0  0  0  0  0  0  0  0  0  0
    6.4754   -3.5857   24.1431 C   0  0  0  0  0  0  0  0  0  0  0  0
    5.4862   -4.5110   24.4042 C   0  0  0  0  0  0  0  0  0  0  0  0
    4.5419   -4.3373   25.3367 N   0  0  0  0  0  0  0  0  0  0  0  0
    4.6211   -3.1943   26.0064 C   0  0  0  0  0  0  0  0  0  0  0  0
    5.5186   -2.2268   25.8669 N   0  0  0  0  0  0  0  0  0  0  0  0
    9.9165    1.2152   22.3205 C   0  0  0  0  0  0  0  0  0  0  0  0
   11.0210    0.3887   22.0338 C   0  0  0  0  0  0  0  0  0  0  0  0
   12.2900    0.9278   21.9642 C   0  0  0  0  0  0  0  0  0  0  0  0
   13.6566   -0.1096   21.6702 Cl  0  0  0  0  0  0  0  0  0  0  0  0
   12.5178    2.2959   22.0953 C   0  0  0  0  0  0  0  0  0  0  0  0
   11.4364    3.1201   22.3446 C   0  0  0  0  0  0  0  0  0  0  0  0
   10.1559    2.5881   22.5140 C   0  0  0  0  0  0  0  0  0  0  0  0
    9.0727    3.5298   22.9850 C   0  0  0  0  0  0  0  0  0  0  0  0
    9.2444    4.7394   23.0506 O   0  0  0  0  0  0  0  0  0  0  0  0
  1  2  1  0
  2  3  1  0
  3  4  2  0
  3  5  1  0
  5  6  1  0
  6  7  1  0
  8  7  1  1
  8  9  1  0
  9 10  2  0
  9 11  1  0
 11 12  1  0
 12 13  2  0
 13 14  1  0
 14 15  2  0
 15 16  1  0
 16 17  2  0
 17 18  1  0
 18 19  2  0
 19 20  1  0
 20 21  2  0
 11 22  1  0
 22 23  1  0
 23 24  1  1
 24 25  1  0
 25 26  1  0
 26 27  2  0
 27 28  1  0
 28 29  2  0
 29 30  1  0
 30 31  2  0
  8 32  1  0
 32 33  2  0
 33 34  1  0
 34 35  1  0
 34 36  2  0
 36 37  1  0
 37 38  2  0
 38 39  1  0
 39 40  2  0
 39  6  1  0
 23  8  1  0
 31 26  1  0
 38 32  1  0
 21 12  1  0
 21 16  1  0
M  END
$$$$

     RDKit          3D

 44 51  0  0  0  0  0  0  0  0999 V2000
    9.2624    4.1751   23.7015 O   0  0  0  0  0  0  0  0  0  0  0  0
    9.0976    2.9645   23.6284 C   0  0  0  0  0  0  0  0  0  0  0  0
   10.1629    2.0632   23.0681 C   0  0  0  0  0  0  0  0  0  0  0  0
   11.4686    2.5511   23.0171 C   0  0  0  0  0  0  0  0  0  0  0  0
   12.5013    1.7457   22.5697 C   0  0  0  0  0  0  0  0  0  0  0  0
   12.1689    0.4895   22.0637 C   0  0  0  0  0  0  0  0  0  0  0  0
   13.4415   -0.5640   21.5115 Cl  0  0  0  0  0  0  0  0  0  0  0  0
   10.8673    0.0236   22.0151 C   0  0  0  0  0  0  0  0  0  0  0  0
    9.8405    0.7814   22.5960 C   0  0  0  0  0  0  0  0  0  0  0  0
    8.4052    0.3033   22.6567 C   0  0  1  0  0  0  0  0  0  0  0  0
    7.7721    0.9153   23.9459 C   0  0  0  0  0  0  0  0  0  0  0  0
    7.9561    2.3548   24.0779 N   0  0  0  0  0  0  0  0  0  0  0  0
    6.7639    3.1889   24.2580 C   0  0  0  0  0  0  0  0  0  0  0  0
    6.1377    3.0226   25.6361 C   0  0  0  0  0  0  0  0  0  0  0  0
    7.1487    3.4603   26.6579 N   0  0  0  0  0  0  0  0  0  0  0  0
    6.8304    3.3789   28.1318 C   0  0  0  0  0  0  0  0  0  0  0  0
    7.0506    4.9013   28.3383 C   0  0  0  0  0  0  0  0  0  0  0  0
    7.8900    5.4634   29.4955 C   0  0  0  0  0  0  0  0  0  0  0  0
    6.7988    6.2641   29.9518 O   0  0  0  0  0  0  0  0  0  0  0  0
    5.9505    5.7945   28.9008 C   0  0  0  0  0  0  0  0  0  0  0  0
    7.4135    4.9700   26.8276 C   0  0  0  0  0  0  0  0  0  0  0  0
    7.6214    0.7607   21.4059 C   0  0  0  0  0  0  0  0  0  0  0  0
    7.6466    1.8480   20.8648 O   0  0  0  0  0  0  0  0  0  0  0  0
    6.8408   -0.2902   20.9873 N   0  0  0  0  0  0  0  0  0  0  0  0
    5.8943   -0.1409   19.9582 C   0  0  0  0  0  0  0  0  0  0  0  0
    6.0907   -0.7736   18.7594 C   0  0  0  0  0  0  0  0  0  0  0  0
    5.2812   -0.6368   17.6841 N   0  0  0  0  0  0  0  0  0  0  0  0
    4.2214    0.1250   17.8272 C   0  0  0  0  0  0  0  0  0  0  0  0
    3.8739    0.7906   19.0374 C   0  0  0  0  0  0  0  0  0  0  0  0
    2.7015    1.5826   19.1478 C   0  0  0  0  0  0  0  0  0  0  0  0
    2.3581    2.1577   20.3400 C   0  0  0  0  0  0  0  0  0  0  0  0
    3.1868    1.9951   21.4737 C   0  0  0  0  0  0  0  0  0  0  0  0
    4.3438    1.2626   21.3860 C   0  0  0  0  0  0  0  0  0  0  0  0
    4.7204    0.6470   20.1551 C   0  0  0  0  0  0  0  0  0  0  0  0
    6.9520   -1.4870   21.7823 C   0  0  0  0  0  0  0  0  0  0  0  0
    8.2258   -1.2382   22.5866 C   0  0  2  0  0  0  0  0  0  0  0  0
    8.2508   -2.0073   23.9125 C   0  0  0  0  0  0  0  0  0  0  0  0
    8.2592   -3.4406   23.7094 N   0  0  0  0  0  0  0  0  0  0  0  0
    7.1596   -4.2343   23.7443 C   0  0  0  0  0  0  0  0  0  0  0  0
    7.3660   -5.5329   23.4263 N   0  0  0  0  0  0  0  0  0  0  0  0
    6.2928   -6.3072   23.4484 C   0  0  0  0  0  0  0  0  0  0  0  0
    5.0238   -5.8435   23.7844 C   0  0  0  0  0  0  0  0  0  0  0  0
    4.9347   -4.4990   24.1062 C   0  0  0  0  0  0  0  0  0  0  0  0
    5.9850   -3.6773   24.0875 N   0  0  0  0  0  0  0  0  0  0  0  0
  1  2  2  0
  2  3  1  0
  3  4  2  0
  4  5  1  0
  5  6  2  0
  6  7  1  0
  6  8  1  0
  8  9  2  0
  9 10  1  0
 10 11  1  1
 11 12  1  0
 12 13  1  0
 13 14  1  0
 14 15  1  0
 15 16  1  0
 16 17  1  0
 17 18  1  0
 18 19  1  0
 19 20  1  0
 17 21  1  0
 10 22  1  0
 22 23  2  0
 22 24  1  0
 24 25  1  0
 25 26  2  0
 26 27  1  0
 27 28  2  0
 28 29  1  0
 29 30  2  0
 30 31  1  0
 31 32  2  0
 32 33  1  0
 33 34  2  0
 24 35  1  0
 35 36  1  0
 36 37  1  1
 37 38  1  0
 38 39  1  0
 39 40  2  0
 40 41  1  0
 41 42  2  0
 42 43  1  0
 43 44  2  0
 12  2  1  0
 21 15  1  0
 34 25  1  0
 44 39  1  0
  9  3  1  0
 36 10  1  0
 20 17  1  0
 34 29  1  0
M  CHG  1  15   1
M  END
>  <cnnaffinities>  (108) 
[6.76437]

>  <score>  (108) 
6.76437

>  <index>  (108) 
53

>  <Smiles>  (108) 
O=C1c2c(c(c(Cl)c(c2[C@@]2(C(N1C(C([N+]1(C(C3(C(OC3([H])[H])([H])[H])C1([H])[H])([H])[H])[H])([H])[H])([H])[H])([H])[H])C(=O)N(c1c(nc(c3c(c(c(c(c13)[H])[H])[H])[H])[H])[H])C([C@@]2(C(N(c1nc(c(c(n1)[H])[H])[H])[H])([H])[H])[H])([H])[H])[H])[H])[H]

>  <h>  (108) 
<NA>

>  <Training>  (108) 
True

>  <Success>  (108) 
True

>  <enamine_searched>  (108) 
False

>  <enamine_id>  (108) 
nan

$$$$

     RDKit          3D

 24 27  0  0  0  0  0  0  0  0999 V2000
   -9.4000   -3.8591  -22.7308 C   0  0  0  0  0  0  0  0  0  0  0  0
   -8.6374   -2.6785  -22.3752 N   0  0  0  0  0  0  0  0  0  0  0  0
   -8.7249   -1.4138  -22.8872 C   0  0  0  0  0  0  0  0  0  0  0  0
   -9.5757   -1.0545  -24.0588 C   0  0  0  0  0  0  0  0  0  0  0  0
  -10.9992   -0.8206  -23.6003 C   0  0  0  0  0  0  0  0  0  0  0  0
  -12.0044   -1.7541  -23.8404 C   0  0  0  0  0  0  0  0  0  0  0  0
  -13.3017   -1.5360  -23.3767 C   0  0  0  0  0  0  0  0  0  0  0  0
  -13.5965   -0.3802  -22.6586 C   0  0  0  0  0  0  0  0  0  0  0  0
  -12.5886    0.5446  -22.3901 C   0  0  0  0  0  0  0  0  0  0  0  0
  -11.2937    0.3178  -22.8479 C   0  0  0  0  0  0  0  0  0  0  0  0
   -8.0204   -0.5591  -22.2047 N   0  0  0  0  0  0  0  0  0  0  0  0
   -7.4076   -1.3006  -21.2335 N   0  0  0  0  0  0  0  0  0  0  0  0
   -6.6260   -0.7458  -20.1903 C   0  0  0  0  0  0  0  0  0  0  0  0
   -6.9179   -1.0312  -18.8765 C   0  0  0  0  0  0  0  0  0  0  0  0
   -6.2183   -0.5508  -17.8208 N   0  0  0  0  0  0  0  0  0  0  0  0
   -5.1834    0.2084  -18.0954 C   0  0  0  0  0  0  0  0  0  0  0  0
   -4.7376    0.5328  -19.4045 C   0  0  0  0  0  0  0  0  0  0  0  0
   -3.5990    1.3475  -19.6302 C   0  0  0  0  0  0  0  0  0  0  0  0
   -3.1872    1.6104  -20.9052 C   0  0  0  0  0  0  0  0  0  0  0  0
   -3.8775    1.0593  -22.0097 C   0  0  0  0  0  0  0  0  0  0  0  0
   -4.9853    0.2746  -21.8199 C   0  0  0  0  0  0  0  0  0  0  0  0
   -5.4676    0.0264  -20.5046 C   0  0  0  0  0  0  0  0  0  0  0  0
   -7.6470   -2.6530  -21.3962 C   0  0  0  0  0  0  0  0  0  0  0  0
   -7.0780   -3.5720  -20.8519 O   0  0  0  0  0  0  0  0  0  0  0  0
  1  2  1  0
  2  3  1  0
  3  4  1  0
  4  5  1  0
  5  6  2  0
  6  7  1  0
  7  8  2  0
  8  9  1  0
  9 10  2  0
  3 11  2  0
 11 12  1  0
 12 13  1  0
 13 14  2  0
 14 15  1  0
 15 16  2  0
 16 17  1  0
 17 18  2  0
 18 19  1  0
 19 20  2  0
 20 21  1  0
 21 22  2  0
 12 23  1  0
 23 24  2  0
 23  2  1  0
 10  5  1  0
 22 13  1  0
 22 17  1  0
M  END
>  <cnnaffinities>  (109) 
[5.3196, 5.31954, 5.16837, 5.16878, 5.37781, 5.37783]

>  <score>  (109) 
5.3196

>  <index>  (109) 
54

>  <Smiles>  (109) 
C(n1c(C(c2c(c(c(c(c2[H])[H])[H])[H])[H])([H])[H])nn(c2c(nc(c3c(c(c(c(c23)[H])[H])[H])[H])[H])[H])c1=O)([H])([H])[H]

>  <h>  (109) 
<NA>

>  <Training>  (109) 
True

>  <Success>  (109) 
True

>  <enamine_searched>  (109) 
False

>  <enamine_id>  (109) 
nan

$$$$

     RDKit          3D

 40 45  0  0  0  0  0  0  0  0999 V2000
    4.4417    5.0452   20.9068 C   0  0  0  0  0  0  0  0  0  0  0  0
    4.9807    4.6126   22.1883 N   0  0  0  0  0  0  0  0  0  0  0  0
    6.3282    4.5178   22.3627 C   0  0  0  0  0  0  0  0  0  0  0  0
    7.1153    4.9537   21.5431 O   0  0  0  0  0  0  0  0  0  0  0  0
    6.8060    3.8621   23.6733 C   0  0  0  0  0  0  0  0  0  0  0  0
    7.9065    2.9469   23.4436 N   0  0  0  0  0  0  0  0  0  0  0  0
    7.7123    1.5032   23.5310 C   0  0  0  0  0  0  0  0  0  0  0  0
    8.5321    0.7056   22.4691 C   0  0  2  0  0  0  0  0  0  0  0  0
    7.7991    0.9116   21.1220 C   0  0  0  0  0  0  0  0  0  0  0  0
    7.8844    1.8488   20.3715 O   0  0  0  0  0  0  0  0  0  0  0  0
    6.9429   -0.1529   20.9143 N   0  0  0  0  0  0  0  0  0  0  0  0
    5.9460   -0.0732   19.9064 C   0  0  0  0  0  0  0  0  0  0  0  0
    6.1538   -0.7063   18.7078 C   0  0  0  0  0  0  0  0  0  0  0  0
    5.3440   -0.5907   17.6260 N   0  0  0  0  0  0  0  0  0  0  0  0
    4.2782    0.1663   17.7479 C   0  0  0  0  0  0  0  0  0  0  0  0
    3.9109    0.8412   18.9480 C   0  0  0  0  0  0  0  0  0  0  0  0
    2.7343    1.6334   19.0366 C   0  0  0  0  0  0  0  0  0  0  0  0
    2.3497    2.1795   20.2307 C   0  0  0  0  0  0  0  0  0  0  0  0
    3.1255    1.9610   21.3890 C   0  0  0  0  0  0  0  0  0  0  0  0
    4.3061    1.2590   21.3162 C   0  0  0  0  0  0  0  0  0  0  0  0
    4.7434    0.6894   20.0851 C   0  0  0  0  0  0  0  0  0  0  0  0
    7.0503   -1.1953   21.9158 C   0  0  0  0  0  0  0  0  0  0  0  0
    8.3877   -0.8511   22.6053 C   0  0  2  0  0  0  0  0  0  0  0  0
    8.5436   -1.4621   24.0061 C   0  0  0  0  0  0  0  0  0  0  0  0
    9.7071   -0.9959   24.7270 N   0  0  0  0  0  0  0  0  0  0  0  0
   10.9779   -1.4705   24.5229 C   0  0  0  0  0  0  0  0  0  0  0  0
   11.2610   -2.5799   23.6899 C   0  0  0  0  0  0  0  0  0  0  0  0
   12.4972   -2.9859   23.4680 N   0  0  0  0  0  0  0  0  0  0  0  0
   13.4832   -2.3334   24.0911 C   0  0  0  0  0  0  0  0  0  0  0  0
   13.2066   -1.2742   24.9359 C   0  0  0  0  0  0  0  0  0  0  0  0
   11.9652   -0.8243   25.1378 N   0  0  0  0  0  0  0  0  0  0  0  0
    9.9617    1.2438   22.4740 C   0  0  0  0  0  0  0  0  0  0  0  0
   11.0525    0.4805   22.0384 C   0  0  0  0  0  0  0  0  0  0  0  0
   12.3296    1.0275   22.0435 C   0  0  0  0  0  0  0  0  0  0  0  0
   13.6871    0.0384   21.6178 Cl  0  0  0  0  0  0  0  0  0  0  0  0
   12.5788    2.3490   22.3994 C   0  0  0  0  0  0  0  0  0  0  0  0
   11.5135    3.1029   22.8231 C   0  0  0  0  0  0  0  0  0  0  0  0
   10.2261    2.5709   22.8617 C   0  0  0  0  0  0  0  0  0  0  0  0
    9.1484    3.5038   23.3129 C   0  0  0  0  0  0  0  0  0  0  0  0
    9.3856    4.6791   23.5621 O   0  0  0  0  0  0  0  0  0  0  0  0
  1  2  1  0
  2  3  1  0
  3  4  2  0
  3  5  1  0
  5  6  1  0
  6  7  1  0
  8  7  1  1
  8  9  1  0
  9 10  2  0
  9 11  1  0
 11 12  1  0
 12 13  2  0
 13 14  1  0
 14 15  2  0
 15 16  1  0
 16 17  2  0
 17 18  1  0
 18 19  2  0
 19 20  1  0
 20 21  2  0
 11 22  1  0
 22 23  1  0
 23 24  1  1
 24 25  1  0
 25 26  1  0
 26 27  2  0
 27 28  1  0
 28 29  2  0
 29 30  1  0
 30 31  2  0
  8 32  1  0
 32 33  2  0
 33 34  1  0
 34 35  1  0
 34 36  2  0
 36 37  1  0
 37 38  2  0
 38 39  1  0
 39 40  2  0
 39  6  1  0
 23  8  1  0
 31 26  1  0
 38 32  1  0
 21 12  1  0
 21 16  1  0
M  END
$$$$

     RDKit          3D

 34 39  0  0  0  0  0  0  0  0999 V2000
    4.8598    4.6655   20.5863 C   0  0  0  0  0  0  0  0  0  0  0  0
    6.0431    4.7701   21.4081 N   0  0  0  0  0  0  0  0  0  0  0  0
    7.0657    5.6151   21.1768 C   0  0  0  0  0  0  0  0  0  0  0  0
    8.0112    5.3803   22.1442 C   0  0  0  0  0  0  0  0  0  0  0  0
    7.4601    4.3486   22.9350 C   0  0  0  0  0  0  0  0  0  0  0  0
    8.0514    3.6578   24.1385 C   0  0  0  0  0  0  0  0  0  0  0  0
    8.8053    2.4654   23.7720 N   0  0  0  0  0  0  0  0  0  0  0  0
    8.1676    1.1664   23.8206 C   0  0  0  0  0  0  0  0  0  0  0  0
    8.4701    0.2706   22.5986 C   0  0  1  0  0  0  0  0  0  0  0  0
    7.9078   -1.1401   22.9002 C   0  0  0  0  0  0  0  0  0  0  0  0
    7.0682   -1.5726   21.6941 C   0  0  0  0  0  0  0  0  0  0  0  0
    6.7831   -0.3059   21.0542 N   0  0  0  0  0  0  0  0  0  0  0  0
    5.8733   -0.1455   19.9917 C   0  0  0  0  0  0  0  0  0  0  0  0
    6.0899   -0.7679   18.7898 C   0  0  0  0  0  0  0  0  0  0  0  0
    5.2969   -0.6218   17.7043 N   0  0  0  0  0  0  0  0  0  0  0  0
    4.2393    0.1473   17.8429 C   0  0  0  0  0  0  0  0  0  0  0  0
    3.8879    0.8258   19.0463 C   0  0  0  0  0  0  0  0  0  0  0  0
    2.7107    1.6086   19.1594 C   0  0  0  0  0  0  0  0  0  0  0  0
    2.3555    2.1710   20.3549 C   0  0  0  0  0  0  0  0  0  0  0  0
    3.1945    2.0366   21.4817 C   0  0  0  0  0  0  0  0  0  0  0  0
    4.3691    1.3315   21.3895 C   0  0  0  0  0  0  0  0  0  0  0  0
    4.7300    0.6833   20.1710 C   0  0  0  0  0  0  0  0  0  0  0  0
    7.6933    0.6892   21.3352 C   0  0  0  0  0  0  0  0  0  0  0  0
    7.8431    1.6853   20.6621 O   0  0  0  0  0  0  0  0  0  0  0  0
    9.9610    0.3286   22.3460 C   0  0  0  0  0  0  0  0  0  0  0  0
   10.6183   -0.7318   21.7298 C   0  0  0  0  0  0  0  0  0  0  0  0
   11.9846   -0.6787   21.5247 C   0  0  0  0  0  0  0  0  0  0  0  0
   12.7785   -2.0775   20.8743 Cl  0  0  0  0  0  0  0  0  0  0  0  0
   12.7382    0.4529   21.8491 C   0  0  0  0  0  0  0  0  0  0  0  0
   12.0787    1.5342   22.3983 C   0  0  0  0  0  0  0  0  0  0  0  0
   10.7100    1.4661   22.6571 C   0  0  0  0  0  0  0  0  0  0  0  0
   10.0795    2.6501   23.3038 C   0  0  0  0  0  0  0  0  0  0  0  0
   10.6675    3.7172   23.3986 O   0  0  0  0  0  0  0  0  0  0  0  0
    6.2619    3.9858   22.4774 N   0  0  0  0  0  0  0  0  0  0  0  0
  1  2  1  0
  2  3  1  0
  3  4  2  0
  4  5  1  0
  5  6  1  0
  6  7  1  0
  7  8  1  0
  9  8  1  1
  9 10  1  0
 10 11  1  0
 11 12  1  0
 12 13  1  0
 13 14  2  0
 14 15  1  0
 15 16  2  0
 16 17  1  0
 17 18  2  0
 18 19  1  0
 19 20  2  0
 20 21  1  0
 21 22  2  0
 12 23  1  0
 23 24  2  0
  9 25  1  0
 25 26  2  0
 26 27  1  0
 27 28  1  0
 27 29  2  0
 29 30  1  0
 30 31  2  0
 31 32  1  0
 32 33  2  0
  5 34  2  0
 34  2  1  0
 32  7  1  0
 23  9  1  0
 31 25  1  0
 22 13  1  0
 22 17  1  0
M  END
>  <cnnaffinities>  (111) 
[5.9511]

>  <score>  (111) 
5.9511

>  <index>  (111) 
55

>  <Smiles>  (111) 
C(n1c(c(c(C(N2C([C@]3(C(C(N(c4c(nc(c5c(c(c(c(c45)[H])[H])[H])[H])[H])[H])C3=O)([H])[H])([H])[H])c3c(c(Cl)c(c(c3C2=O)[H])[H])[H])([H])[H])([H])[H])n1)[H])[H])([H])([H])[H]

>  <h>  (111) 
<NA>

>  <Training>  (111) 
True

>  <Success>  (111) 
True

>  <enamine_searched>  (111) 
False

>  <enamine_id>  (111) 
nan

$$$$

     RDKit          3D

 36 41  0  0  0  0  0  0  0  0999 V2000
   -7.3839   -4.4713  -25.6355 C   0  0  0  0  0  0  0  0  0  0  0  0
   -7.4013   -3.6314  -24.5079 O   0  0  0  0  0  0  0  0  0  0  0  0
   -8.4850   -3.8947  -23.6374 C   0  0  0  0  0  0  0  0  0  0  0  0
   -8.5386   -2.8269  -22.5549 C   0  0  1  0  0  0  0  0  0  0  0  0
   -7.2186   -2.5765  -21.8214 C   0  0  0  0  0  0  0  0  0  0  0  0
   -7.4950   -1.3104  -21.1593 N   0  0  0  0  0  0  0  0  0  0  0  0
   -6.6505   -0.7993  -20.1314 C   0  0  0  0  0  0  0  0  0  0  0  0
   -6.8710   -1.1714  -18.8266 C   0  0  0  0  0  0  0  0  0  0  0  0
   -6.0915   -0.8073  -17.7772 N   0  0  0  0  0  0  0  0  0  0  0  0
   -5.0664   -0.0324  -18.0310 C   0  0  0  0  0  0  0  0  0  0  0  0
   -4.7329    0.4474  -19.3274 C   0  0  0  0  0  0  0  0  0  0  0  0
   -3.6559    1.3500  -19.5251 C   0  0  0  0  0  0  0  0  0  0  0  0
   -3.3078    1.7380  -20.7853 C   0  0  0  0  0  0  0  0  0  0  0  0
   -4.0133    1.2407  -21.9055 C   0  0  0  0  0  0  0  0  0  0  0  0
   -5.1181    0.4435  -21.7356 C   0  0  0  0  0  0  0  0  0  0  0  0
   -5.5178    0.0316  -20.4308 C   0  0  0  0  0  0  0  0  0  0  0  0
   -8.4466   -0.5533  -21.8189 C   0  0  0  0  0  0  0  0  0  0  0  0
   -8.7070    0.6026  -21.5633 O   0  0  0  0  0  0  0  0  0  0  0  0
   -9.0621   -1.4218  -22.9606 C   0  0  1  0  0  0  0  0  0  0  0  0
   -8.5012   -0.8931  -24.3085 C   0  0  0  0  0  0  0  0  0  0  0  0
   -8.9934    0.4486  -24.5835 N   0  0  0  0  0  0  0  0  0  0  0  0
   -8.1468    1.3506  -25.3373 C   0  0  0  0  0  0  0  0  0  0  0  0
   -7.2912    2.2432  -24.4768 C   0  0  0  0  0  0  0  0  0  0  0  0
   -6.0221    2.6861  -24.6822 C   0  0  0  0  0  0  0  0  0  0  0  0
   -5.7507    3.5999  -23.6828 N   0  0  0  0  0  0  0  0  0  0  0  0
   -6.8123    3.6927  -22.8698 C   0  0  0  0  0  0  0  0  0  0  0  0
   -7.7665    2.8733  -23.3352 N   0  0  0  0  0  0  0  0  0  0  0  0
  -10.2201    0.8930  -24.1916 C   0  0  0  0  0  0  0  0  0  0  0  0
  -10.5569    2.0695  -24.3077 O   0  0  0  0  0  0  0  0  0  0  0  0
  -11.1231   -0.1405  -23.6018 C   0  0  0  0  0  0  0  0  0  0  0  0
  -12.4936    0.1101  -23.5825 C   0  0  0  0  0  0  0  0  0  0  0  0
  -13.3598   -0.8252  -23.0566 C   0  0  0  0  0  0  0  0  0  0  0  0
  -12.8253   -2.0189  -22.5734 C   0  0  0  0  0  0  0  0  0  0  0  0
  -13.8851   -3.1883  -21.8409 Cl  0  0  0  0  0  0  0  0  0  0  0  0
  -11.4686   -2.2911  -22.6035 C   0  0  0  0  0  0  0  0  0  0  0  0
  -10.5760   -1.3123  -23.0596 C   0  0  0  0  0  0  0  0  0  0  0  0
  1  2  1  0
  2  3  1  0
  4  3  1  6
  4  5  1  0
  5  6  1  0
  6  7  1  0
  7  8  2  0
  8  9  1  0
  9 10  2  0
 10 11  1  0
 11 12  2  0
 12 13  1  0
 13 14  2  0
 14 15  1  0
 15 16  2  0
  6 17  1  0
 17 18  2  0
 17 19  1  0
 19 20  1  6
 20 21  1  0
 21 22  1  0
 22 23  1  0
 23 24  2  0
 24 25  1  0
 25 26  2  0
 26 27  1  0
 21 28  1  0
 28 29  2  0
 28 30  1  0
 30 31  2  0
 31 32  1  0
 32 33  2  0
 33 34  1  0
 33 35  1  0
 35 36  2  0
 19  4  1  0
 27 23  1  0
 36 30  1  0
 16  7  1  0
 36 19  1  0
 16 11  1  0
M  CHG  1  25   1
M  END
$$$$

     RDKit          3D

 35 40  0  0  0  0  0  0  0  0999 V2000
   -8.4193   -3.8270  -23.7071 C   0  0  0  0  0  0  0  0  0  0  0  0
   -8.5218   -2.8272  -22.5617 C   0  0  1  0  0  0  0  0  0  0  0  0
   -7.2078   -2.5775  -21.8067 C   0  0  0  0  0  0  0  0  0  0  0  0
   -7.4865   -1.3285  -21.1354 N   0  0  0  0  0  0  0  0  0  0  0  0
   -6.6388   -0.8173  -20.1171 C   0  0  0  0  0  0  0  0  0  0  0  0
   -6.8723   -1.1647  -18.8103 C   0  0  0  0  0  0  0  0  0  0  0  0
   -6.1064   -0.7739  -17.7630 N   0  0  0  0  0  0  0  0  0  0  0  0
   -5.0808    0.0037  -18.0103 C   0  0  0  0  0  0  0  0  0  0  0  0
   -4.7402    0.4645  -19.3149 C   0  0  0  0  0  0  0  0  0  0  0  0
   -3.6582    1.3578  -19.5303 C   0  0  0  0  0  0  0  0  0  0  0  0
   -3.3174    1.7544  -20.7930 C   0  0  0  0  0  0  0  0  0  0  0  0
   -4.0436    1.2665  -21.9001 C   0  0  0  0  0  0  0  0  0  0  0  0
   -5.1274    0.4398  -21.7165 C   0  0  0  0  0  0  0  0  0  0  0  0
   -5.5149    0.0220  -20.4138 C   0  0  0  0  0  0  0  0  0  0  0  0
   -8.4730   -0.5830  -21.7592 C   0  0  0  0  0  0  0  0  0  0  0  0
   -8.8049    0.5299  -21.4346 O   0  0  0  0  0  0  0  0  0  0  0  0
   -9.0562   -1.4175  -22.9330 C   0  0  1  0  0  0  0  0  0  0  0  0
   -8.4945   -0.8740  -24.2763 C   0  0  0  0  0  0  0  0  0  0  0  0
   -8.9745    0.4663  -24.5652 N   0  0  0  0  0  0  0  0  0  0  0  0
   -8.1458    1.4015  -25.2920 C   0  0  0  0  0  0  0  0  0  0  0  0
   -7.7388    2.6042  -24.4966 C   0  0  0  0  0  0  0  0  0  0  0  0
   -7.8621    3.7815  -25.1024 N   0  0  0  0  0  0  0  0  0  0  0  0
   -7.4688    4.8443  -24.4103 C   0  0  0  0  0  0  0  0  0  0  0  0
   -6.9544    4.7326  -23.1274 C   0  0  0  0  0  0  0  0  0  0  0  0
   -6.8565    3.4503  -22.6093 C   0  0  0  0  0  0  0  0  0  0  0  0
   -7.2304    2.3697  -23.2886 N   0  0  0  0  0  0  0  0  0  0  0  0
  -10.2298    0.8915  -24.2428 C   0  0  0  0  0  0  0  0  0  0  0  0
  -10.6156    2.0367  -24.4387 O   0  0  0  0  0  0  0  0  0  0  0  0
  -11.1090   -0.1418  -23.6211 C   0  0  0  0  0  0  0  0  0  0  0  0
  -12.4779    0.1231  -23.5992 C   0  0  0  0  0  0  0  0  0  0  0  0
  -13.3540   -0.7911  -23.0485 C   0  0  0  0  0  0  0  0  0  0  0  0
  -12.8221   -1.9701  -22.5358 C   0  0  0  0  0  0  0  0  0  0  0  0
  -13.6583   -2.8588  -21.9664 F   0  0  0  0  0  0  0  0  0  0  0  0
  -11.4697   -2.2610  -22.5595 C   0  0  0  0  0  0  0  0  0  0  0  0
  -10.5697   -1.3031  -23.0454 C   0  0  0  0  0  0  0  0  0  0  0  0
  2  1  1  6
  2  3  1  0
  3  4  1  0
  4  5  1  0
  5  6  2  0
  6  7  1  0
  7  8  2  0
  8  9  1  0
  9 10  2  0
 10 11  1  0
 11 12  2  0
 12 13  1  0
 13 14  2  0
  4 15  1  0
 15 16  2  0
 15 17  1  0
 17 18  1  6
 18 19  1  0
 19 20  1  0
 20 21  1  0
 21 22  2  0
 22 23  1  0
 23 24  2  0
 24 25  1  0
 25 26  2  0
 19 27  1  0
 27 28  2  0
 27 29  1  0
 29 30  2  0
 30 31  1  0
 31 32  2  0
 32 33  1  0
 32 34  1  0
 34 35  2  0
 17  2  1  0
 26 21  1  0
 35 29  1  0
 14  5  1  0
 35 17  1  0
 14  9  1  0
M  END
$$$$

     RDKit          3D

 34 38  0  0  0  0  0  0  0  0999 V2000
   -7.0220    3.6281  -22.4643 C   0  0  0  0  0  0  0  0  0  0  0  0
   -7.7524    2.6453  -23.2318 N   0  0  0  0  0  0  0  0  0  0  0  0
   -7.4796    2.5057  -24.5450 C   0  0  0  0  0  0  0  0  0  0  0  0
   -6.7216    3.2440  -25.1602 O   0  0  0  0  0  0  0  0  0  0  0  0
   -8.1631    1.3586  -25.3027 C   0  0  0  0  0  0  0  0  0  0  0  0
   -8.9776    0.4638  -24.5102 N   0  0  0  0  0  0  0  0  0  0  0  0
   -8.5123   -0.8883  -24.2749 C   0  0  0  0  0  0  0  0  0  0  0  0
   -9.0768   -1.4952  -22.9515 C   0  0  2  0  0  0  0  0  0  0  0  0
   -8.4945   -0.6400  -21.7806 C   0  0  0  0  0  0  0  0  0  0  0  0
   -8.8274    0.4919  -21.4829 O   0  0  0  0  0  0  0  0  0  0  0  0
   -7.4749   -1.3348  -21.1728 N   0  0  0  0  0  0  0  0  0  0  0  0
   -6.6498   -0.8006  -20.1315 C   0  0  0  0  0  0  0  0  0  0  0  0
   -6.8790   -1.1527  -18.8215 C   0  0  0  0  0  0  0  0  0  0  0  0
   -6.1032   -0.7792  -17.7728 N   0  0  0  0  0  0  0  0  0  0  0  0
   -5.0688   -0.0160  -18.0252 C   0  0  0  0  0  0  0  0  0  0  0  0
   -4.7306    0.4553  -19.3240 C   0  0  0  0  0  0  0  0  0  0  0  0
   -3.6438    1.3477  -19.5290 C   0  0  0  0  0  0  0  0  0  0  0  0
   -3.3221    1.7583  -20.7915 C   0  0  0  0  0  0  0  0  0  0  0  0
   -4.0555    1.2891  -21.9033 C   0  0  0  0  0  0  0  0  0  0  0  0
   -5.1319    0.4533  -21.7286 C   0  0  0  0  0  0  0  0  0  0  0  0
   -5.5159    0.0290  -20.4233 C   0  0  0  0  0  0  0  0  0  0  0  0
   -7.0769   -2.4981  -21.9437 C   0  0  0  0  0  0  0  0  0  0  0  0
   -8.3916   -2.9056  -22.6716 C   0  0  0  0  0  0  0  0  0  0  0  0
   -8.1502   -3.7400  -23.9361 C   0  0  0  0  0  0  0  0  0  0  0  0
   -9.1229   -3.7801  -21.6484 C   0  0  0  0  0  0  0  0  0  0  0  0
  -10.6089   -1.3484  -23.0608 C   0  0  0  0  0  0  0  0  0  0  0  0
  -11.5609   -2.2823  -22.6310 C   0  0  0  0  0  0  0  0  0  0  0  0
  -12.9023   -1.9542  -22.5797 C   0  0  0  0  0  0  0  0  0  0  0  0
  -13.9902   -3.0827  -21.8270 Cl  0  0  0  0  0  0  0  0  0  0  0  0
  -13.4077   -0.7604  -23.0804 C   0  0  0  0  0  0  0  0  0  0  0  0
  -12.5055    0.1307  -23.6114 C   0  0  0  0  0  0  0  0  0  0  0  0
  -11.1407   -0.1589  -23.6045 C   0  0  0  0  0  0  0  0  0  0  0  0
  -10.2510    0.8628  -24.2254 C   0  0  0  0  0  0  0  0  0  0  0  0
  -10.6413    1.9988  -24.4646 O   0  0  0  0  0  0  0  0  0  0  0  0
  1  2  1  0
  2  3  1  0
  3  4  2  0
  3  5  1  0
  5  6  1  0
  6  7  1  0
  8  7  1  6
  8  9  1  0
  9 10  2  0
  9 11  1  0
 11 12  1  0
 12 13  2  0
 13 14  1  0
 14 15  2  0
 15 16  1  0
 16 17  2  0
 17 18  1  0
 18 19  2  0
 19 20  1  0
 20 21  2  0
 11 22  1  0
 22 23  1  0
 23 24  1  0
 23 25  1  0
  8 26  1  0
 26 27  2  0
 27 28  1  0
 28 29  1  0
 28 30  2  0
 30 31  1  0
 31 32  2  0
 32 33  1  0
 33 34  2  0
 33  6  1  0
 23  8  1  0
 32 26  1  0
 21 12  1  0
 21 16  1  0
M  END
$$$$

     RDKit          3D

 26 29  0  0  0  0  0  0  0  0999 V2000
   -7.6406    0.6052  -25.6372 C   0  0  0  0  0  0  0  0  0  0  0  0
   -8.5297   -0.0530  -24.6973 N   0  0  0  0  0  0  0  0  0  0  0  0
   -8.1539   -1.3953  -24.2845 C   0  0  0  0  0  0  0  0  0  0  0  0
   -8.8474   -1.8009  -22.9733 C   0  0  1  0  0  0  0  0  0  0  0  0
   -8.2850   -0.9991  -21.7829 C   0  0  0  0  0  0  0  0  0  0  0  0
   -8.7236    0.0688  -21.4238 O   0  0  0  0  0  0  0  0  0  0  0  0
   -7.1994   -1.5902  -21.1636 N   0  0  0  0  0  0  0  0  0  0  0  0
   -6.4506   -0.9524  -20.1358 C   0  0  0  0  0  0  0  0  0  0  0  0
   -6.7751   -1.1301  -18.8164 C   0  0  0  0  0  0  0  0  0  0  0  0
   -6.0715   -0.6227  -17.7718 N   0  0  0  0  0  0  0  0  0  0  0  0
   -5.0512    0.1534  -18.0404 C   0  0  0  0  0  0  0  0  0  0  0  0
   -4.6010    0.4291  -19.3657 C   0  0  0  0  0  0  0  0  0  0  0  0
   -3.5004    1.2844  -19.6359 C   0  0  0  0  0  0  0  0  0  0  0  0
   -3.0534    1.4516  -20.9196 C   0  0  0  0  0  0  0  0  0  0  0  0
   -3.6890    0.7822  -21.9922 C   0  0  0  0  0  0  0  0  0  0  0  0
   -4.7844   -0.0105  -21.7581 C   0  0  0  0  0  0  0  0  0  0  0  0
   -5.2854   -0.1803  -20.4401 C   0  0  0  0  0  0  0  0  0  0  0  0
  -10.3207   -1.5576  -23.1235 C   0  0  0  0  0  0  0  0  0  0  0  0
  -11.2387   -2.3777  -22.4762 C   0  0  0  0  0  0  0  0  0  0  0  0
  -12.5901   -2.0617  -22.5088 C   0  0  0  0  0  0  0  0  0  0  0  0
  -13.7151   -3.0599  -21.6255 Cl  0  0  0  0  0  0  0  0  0  0  0  0
  -13.0461   -0.9424  -23.2072 C   0  0  0  0  0  0  0  0  0  0  0  0
  -12.1252   -0.1420  -23.8658 C   0  0  0  0  0  0  0  0  0  0  0  0
  -10.7601   -0.4206  -23.7954 C   0  0  0  0  0  0  0  0  0  0  0  0
   -9.7485    0.5149  -24.4192 C   0  0  0  0  0  0  0  0  0  0  0  0
   -9.9854    1.6960  -24.6174 O   0  0  0  0  0  0  0  0  0  0  0  0
  1  2  1  0
  2  3  1  0
  3  4  1  0
  4  5  1  1
  5  6  2  0
  5  7  1  0
  7  8  1  0
  8  9  2  0
  9 10  1  0
 10 11  2  0
 11 12  1  0
 12 13  2  0
 13 14  1  0
 14 15  2  0
 15 16  1  0
 16 17  2  0
  4 18  1  0
 18 19  2  0
 19 20  1  0
 20 21  1  0
 20 22  2  0
 22 23  1  0
 23 24  2  0
 24 25  1  0
 25 26  2  0
 25  2  1  0
 17  8  1  0
 24 18  1  0
 17 12  1  0
M  END
$$$$

     RDKit          3D

 38 43  0  0  0  0  0  0  0  0999 V2000
   -7.0113    3.6321  -22.4900 C   0  0  0  0  0  0  0  0  0  0  0  0
   -7.7959    2.6966  -23.2711 N   0  0  0  0  0  0  0  0  0  0  0  0
   -7.5092    2.5256  -24.5757 C   0  0  0  0  0  0  0  0  0  0  0  0
   -6.7368    3.2398  -25.2023 O   0  0  0  0  0  0  0  0  0  0  0  0
   -8.1560    1.3539  -25.3220 C   0  0  0  0  0  0  0  0  0  0  0  0
   -8.9931    0.4613  -24.5628 N   0  0  0  0  0  0  0  0  0  0  0  0
   -8.5169   -0.8875  -24.2729 C   0  0  0  0  0  0  0  0  0  0  0  0
   -9.0672   -1.4198  -22.9241 C   0  0  2  0  0  0  0  0  0  0  0  0
   -8.4663   -0.5693  -21.7820 C   0  0  0  0  0  0  0  0  0  0  0  0
   -8.7735    0.5734  -21.5001 O   0  0  0  0  0  0  0  0  0  0  0  0
   -7.4985   -1.3049  -21.1428 N   0  0  0  0  0  0  0  0  0  0  0  0
   -6.6520   -0.7947  -20.1217 C   0  0  0  0  0  0  0  0  0  0  0  0
   -6.8852   -1.1462  -18.8167 C   0  0  0  0  0  0  0  0  0  0  0  0
   -6.1262   -0.7466  -17.7668 N   0  0  0  0  0  0  0  0  0  0  0  0
   -5.0994    0.0303  -18.0073 C   0  0  0  0  0  0  0  0  0  0  0  0
   -4.7527    0.4864  -19.3113 C   0  0  0  0  0  0  0  0  0  0  0  0
   -3.6616    1.3667  -19.5322 C   0  0  0  0  0  0  0  0  0  0  0  0
   -3.3229    1.7604  -20.7933 C   0  0  0  0  0  0  0  0  0  0  0  0
   -4.0593    1.2871  -21.9008 C   0  0  0  0  0  0  0  0  0  0  0  0
   -5.1416    0.4613  -21.7170 C   0  0  0  0  0  0  0  0  0  0  0  0
   -5.5287    0.0444  -20.4132 C   0  0  0  0  0  0  0  0  0  0  0  0
   -7.2254   -2.5627  -21.8051 C   0  0  0  0  0  0  0  0  0  0  0  0
   -8.5369   -2.8313  -22.5491 C   0  0  2  0  0  0  0  0  0  0  0  0
   -8.4128   -3.8613  -23.6880 C   0  0  0  0  0  0  0  0  0  0  0  0
   -9.7464   -4.2516  -24.2759 C   0  0  0  0  0  0  0  0  0  0  0  0
  -10.5574   -5.1573  -23.7403 N   0  0  0  0  0  0  0  0  0  0  0  0
  -11.6238   -5.1930  -24.5406 N   0  0  0  0  0  0  0  0  0  0  0  0
  -11.4585   -4.3453  -25.5141 N   0  0  0  0  0  0  0  0  0  0  0  0
  -10.2759   -3.7382  -25.3786 N   0  0  0  0  0  0  0  0  0  0  0  0
  -10.5751   -1.2806  -23.0267 C   0  0  0  0  0  0  0  0  0  0  0  0
  -11.4630   -2.2248  -22.5142 C   0  0  0  0  0  0  0  0  0  0  0  0
  -12.8200   -1.9666  -22.4775 C   0  0  0  0  0  0  0  0  0  0  0  0
  -13.8501   -3.1256  -21.6751 Cl  0  0  0  0  0  0  0  0  0  0  0  0
  -13.3637   -0.7992  -23.0142 C   0  0  0  0  0  0  0  0  0  0  0  0
  -12.5008    0.1144  -23.5892 C   0  0  0  0  0  0  0  0  0  0  0  0
  -11.1303   -0.1336  -23.6165 C   0  0  0  0  0  0  0  0  0  0  0  0
  -10.2596    0.8838  -24.2686 C   0  0  0  0  0  0  0  0  0  0  0  0
  -10.6495    2.0256  -24.4937 O   0  0  0  0  0  0  0  0  0  0  0  0
  1  2  1  0
  2  3  1  0
  3  4  2  0
  3  5  1  0
  5  6  1  0
  6  7  1  0
  8  7  1  6
  8  9  1  0
  9 10  2  0
  9 11  1  0
 11 12  1  0
 12 13  2  0
 13 14  1  0
 14 15  2  0
 15 16  1  0
 16 17  2  0
 17 18  1  0
 18 19  2  0
 19 20  1  0
 20 21  2  0
 11 22  1  0
 22 23  1  0
 23 24  1  6
 24 25  1  0
 25 26  1  0
 26 27  2  0
 27 28  1  0
 28 29  1  0
  8 30  1  0
 30 31  2  0
 31 32  1  0
 32 33  1  0
 32 34  2  0
 34 35  1  0
 35 36  2  0
 36 37  1  0
 37 38  2  0
 37  6  1  0
 23  8  1  0
 29 25  2  0
 36 30  1  0
 21 12  1  0
 21 16  1  0
M  CHG  1  28  -1
M  END
$$$$

     RDKit          3D

 24 26  0  0  0  0  0  0  0  0999 V2000
    5.3708   -2.0762   21.9096 O   0  0  0  0  0  0  0  0  0  0  0  0
    6.3293   -1.3689   22.1524 C   0  0  0  0  0  0  0  0  0  0  0  0
    6.8479   -0.3922   21.0805 C   0  0  0  0  0  0  0  0  0  0  0  0
    5.8594   -0.1975   19.9588 C   0  0  0  0  0  0  0  0  0  0  0  0
    6.0374   -0.8167   18.7495 C   0  0  0  0  0  0  0  0  0  0  0  0
    5.2306   -0.6826   17.6633 N   0  0  0  0  0  0  0  0  0  0  0  0
    4.1689    0.0747   17.8023 C   0  0  0  0  0  0  0  0  0  0  0  0
    3.8206    0.7276   19.0169 C   0  0  0  0  0  0  0  0  0  0  0  0
    2.6264    1.4802   19.1500 C   0  0  0  0  0  0  0  0  0  0  0  0
    2.3034    2.0943   20.3277 C   0  0  0  0  0  0  0  0  0  0  0  0
    3.1836    2.0029   21.4283 C   0  0  0  0  0  0  0  0  0  0  0  0
    4.3526    1.2852   21.3265 C   0  0  0  0  0  0  0  0  0  0  0  0
    4.6962    0.6076   20.1242 C   0  0  0  0  0  0  0  0  0  0  0  0
    6.9733   -1.3880   23.3831 N   0  0  0  0  0  0  0  0  0  0  0  0
    8.3971   -1.0852   23.5020 C   0  0  0  0  0  0  0  0  0  0  0  0
    9.3270   -2.1979   23.0178 C   0  0  0  0  0  0  0  0  0  0  0  0
    9.4468   -3.3629   23.9900 C   0  0  0  0  0  0  0  0  0  0  0  0
    7.9084   -4.2508   24.3410 S   0  0  0  0  0  0  0  0  0  0  0  0
    7.0787   -2.9871   25.3336 C   0  0  0  0  0  0  0  0  0  0  0  0
    6.2681   -1.9867   24.5053 C   0  0  1  0  0  0  0  0  0  0  0  0
    5.7190   -0.8646   25.3835 C   0  0  0  0  0  0  0  0  0  0  0  0
    6.7050   -0.1408   25.9509 F   0  0  0  0  0  0  0  0  0  0  0  0
    4.9579   -0.0187   24.6729 F   0  0  0  0  0  0  0  0  0  0  0  0
    4.9678   -1.3503   26.3887 F   0  0  0  0  0  0  0  0  0  0  0  0
  1  2  2  0
  2  3  1  0
  3  4  1  0
  4  5  2  0
  5  6  1  0
  6  7  2  0
  7  8  1  0
  8  9  2  0
  9 10  1  0
 10 11  2  0
 11 12  1  0
 12 13  2  0
  2 14  1  0
 14 15  1  0
 15 16  1  0
 16 17  1  0
 17 18  1  0
 18 19  1  0
 19 20  1  0
 20 21  1  1
 21 22  1  0
 21 23  1  0
 21 24  1  0
 13  4  1  0
 20 14  1  0
 13  8  1  0
M  END
$$$$

     RDKit          3D

 40 45  0  0  0  0  0  0  0  0999 V2000
    7.0580    4.9617   27.3147 C   0  0  0  0  0  0  0  0  0  0  0  0
    7.2303    4.8529   25.8730 N   0  0  0  0  0  0  0  0  0  0  0  0
    6.5545    3.8929   25.1701 C   0  0  0  0  0  0  0  0  0  0  0  0
    5.8202    3.0814   25.7014 O   0  0  0  0  0  0  0  0  0  0  0  0
    6.7973    3.8119   23.6645 C   0  0  0  0  0  0  0  0  0  0  0  0
    7.9478    2.9291   23.3767 N   0  0  0  0  0  0  0  0  0  0  0  0
    7.8381    1.4510   23.5137 C   0  0  0  0  0  0  0  0  0  0  0  0
    8.4718    0.6414   22.3052 C   0  0  2  0  0  0  0  0  0  0  0  0
    7.5822    0.9359   21.1054 C   0  0  0  0  0  0  0  0  0  0  0  0
    7.4915    1.9692   20.4812 O   0  0  0  0  0  0  0  0  0  0  0  0
    6.8418   -0.1988   20.8731 N   0  0  0  0  0  0  0  0  0  0  0  0
    5.8372   -0.1720   19.9045 C   0  0  0  0  0  0  0  0  0  0  0  0
    6.0281   -0.8330   18.7246 C   0  0  0  0  0  0  0  0  0  0  0  0
    5.2201   -0.7008   17.6520 N   0  0  0  0  0  0  0  0  0  0  0  0
    4.1641    0.0695   17.7987 C   0  0  0  0  0  0  0  0  0  0  0  0
    3.8083    0.7271   19.0107 C   0  0  0  0  0  0  0  0  0  0  0  0
    2.6179    1.4839   19.1449 C   0  0  0  0  0  0  0  0  0  0  0  0
    2.2997    2.0897   20.3265 C   0  0  0  0  0  0  0  0  0  0  0  0
    3.1781    2.0088   21.4285 C   0  0  0  0  0  0  0  0  0  0  0  0
    4.3431    1.2949   21.3278 C   0  0  0  0  0  0  0  0  0  0  0  0
    4.6767    0.6224   20.1136 C   0  0  0  0  0  0  0  0  0  0  0  0
    7.1501   -1.3269   21.7184 C   0  0  0  0  0  0  0  0  0  0  0  0
    8.4045   -0.8888   22.4633 C   0  0  2  0  0  0  0  0  0  0  0  0
    8.5096   -1.4422   23.8850 C   0  0  0  0  0  0  0  0  0  0  0  0
    9.7164   -1.0434   24.5644 N   0  0  0  0  0  0  0  0  0  0  0  0
   10.9440   -1.3562   24.0900 C   0  0  0  0  0  0  0  0  0  0  0  0
   11.2805   -2.3532   23.2100 C   0  0  0  0  0  0  0  0  0  0  0  0
   12.5967   -2.4427   22.8470 N   0  0  0  0  0  0  0  0  0  0  0  0
   13.2151   -1.4992   23.4530 C   0  0  0  0  0  0  0  0  0  0  0  0
   14.5779   -1.1813   23.4302 C   0  0  0  0  0  0  0  0  0  0  0  0
   12.3261   -0.4578   24.5755 S   0  0  0  0  0  0  0  0  0  0  0  0
    9.8753    1.0002   22.0661 C   0  0  0  0  0  0  0  0  0  0  0  0
   10.9199    0.3693   21.4684 C   0  0  0  0  0  0  0  0  0  0  0  0
   12.1708    0.9206   21.5187 C   0  0  0  0  0  0  0  0  0  0  0  0
   10.2182    2.3954   22.6138 Cl  0  0  0  0  0  0  0  0  0  0  0  0
   12.5654    2.2871   21.6212 C   0  0  0  0  0  0  0  0  0  0  0  0
   11.6746    3.1043   22.2039 C   0  0  0  0  0  0  0  0  0  0  0  0
   10.2181    2.3954   22.6138 C   0  0  0  0  0  0  0  0  0  0  0  0
    9.2265    3.4757   23.2115 C   0  0  0  0  0  0  0  0  0  0  0  0
    9.4636    4.6309   23.4661 O   0  0  0  0  0  0  0  0  0  0  0  0
  1  2  1  0
  2  3  1  0
  3  4  2  0
  3  5  1  0
  5  6  1  0
  6  7  1  0
  8  7  1  1
  8  9  1  0
  9 10  2  0
  9 11  1  0
 11 12  1  0
 12 13  2  0
 13 14  1  0
 14 15  2  0
 15 16  1  0
 16 17  2  0
 17 18  1  0
 18 19  2  0
 19 20  1  0
 20 21  2  0
 11 22  1  0
 22 23  1  0
 23 24  1  1
 24 25  1  0
 25 26  1  0
 26 27  2  0
 27 28  1  0
 28 29  2  0
 29 30  1  0
 29 31  1  0
  8 32  1  0
 32 33  2  0
 33 34  1  0
 34 35  1  0
 34 36  2  0
 36 37  1  0
 37 38  2  0
 38 39  1  0
 39 40  2  0
 39  6  1  0
 23  8  1  0
 31 26  1  0
 38 32  1  0
 21 12  1  0
 21 16  1  0
M  END
$$$$

     RDKit          3D

 36 41  0  0  0  0  0  0  0  0999 V2000
   -7.6702    4.5240  -27.1889 C   0  0  0  0  0  0  0  0  0  0  0  0
   -8.9089    3.6399  -27.1676 C   0  0  0  0  0  0  0  0  0  0  0  0
   -8.5912    2.2679  -27.5454 N   0  0  0  0  0  0  0  0  0  0  0  0
   -8.6852    1.9370  -28.8417 N   0  0  0  0  0  0  0  0  0  0  0  0
   -8.4172    0.6417  -28.8890 C   0  0  0  0  0  0  0  0  0  0  0  0
   -8.1319    0.1258  -27.6054 C   0  0  0  0  0  0  0  0  0  0  0  0
   -8.2434    1.2144  -26.7555 C   0  0  0  0  0  0  0  0  0  0  0  0
   -8.0649    1.3511  -25.2607 C   0  0  0  0  0  0  0  0  0  0  0  0
   -8.9167    0.4617  -24.5024 N   0  0  0  0  0  0  0  0  0  0  0  0
   -8.5012   -0.9076  -24.2776 C   0  0  0  0  0  0  0  0  0  0  0  0
   -9.0574   -1.4358  -22.9277 C   0  0  2  0  0  0  0  0  0  0  0  0
   -8.4582   -0.5822  -21.7657 C   0  0  0  0  0  0  0  0  0  0  0  0
   -8.7417    0.5517  -21.4622 O   0  0  0  0  0  0  0  0  0  0  0  0
   -7.4917   -1.3400  -21.1274 N   0  0  0  0  0  0  0  0  0  0  0  0
   -6.6441   -0.8212  -20.1093 C   0  0  0  0  0  0  0  0  0  0  0  0
   -6.8598   -1.1843  -18.8034 C   0  0  0  0  0  0  0  0  0  0  0  0
   -6.0728   -0.8223  -17.7608 N   0  0  0  0  0  0  0  0  0  0  0  0
   -5.0415   -0.0571  -18.0225 C   0  0  0  0  0  0  0  0  0  0  0  0
   -4.7198    0.4248  -19.3212 C   0  0  0  0  0  0  0  0  0  0  0  0
   -3.6440    1.3283  -19.5250 C   0  0  0  0  0  0  0  0  0  0  0  0
   -3.3369    1.7562  -20.7873 C   0  0  0  0  0  0  0  0  0  0  0  0
   -4.0733    1.2890  -21.9000 C   0  0  0  0  0  0  0  0  0  0  0  0
   -5.1379    0.4430  -21.7223 C   0  0  0  0  0  0  0  0  0  0  0  0
   -5.5109    0.0059  -20.4166 C   0  0  0  0  0  0  0  0  0  0  0  0
   -7.2101   -2.5864  -21.8146 C   0  0  0  0  0  0  0  0  0  0  0  0
   -8.5252   -2.8451  -22.5586 C   0  0  2  0  0  0  0  0  0  0  0  0
   -8.4267   -3.8385  -23.7068 C   0  0  0  0  0  0  0  0  0  0  0  0
  -10.5678   -1.3060  -23.0468 C   0  0  0  0  0  0  0  0  0  0  0  0
  -11.4754   -2.2846  -22.6224 C   0  0  0  0  0  0  0  0  0  0  0  0
  -12.8231   -1.9907  -22.6261 C   0  0  0  0  0  0  0  0  0  0  0  0
  -13.6848   -2.9051  -22.1470 F   0  0  0  0  0  0  0  0  0  0  0  0
  -13.3426   -0.7899  -23.0932 C   0  0  0  0  0  0  0  0  0  0  0  0
  -12.4556    0.1431  -23.5876 C   0  0  0  0  0  0  0  0  0  0  0  0
  -11.0869   -0.1192  -23.5910 C   0  0  0  0  0  0  0  0  0  0  0  0
  -10.1730    0.8991  -24.1993 C   0  0  0  0  0  0  0  0  0  0  0  0
  -10.5467    2.0457  -24.4192 O   0  0  0  0  0  0  0  0  0  0  0  0
  1  2  1  0
  2  3  1  0
  3  4  1  0
  4  5  2  0
  5  6  1  0
  6  7  2  0
  7  8  1  0
  8  9  1  0
  9 10  1  0
 11 10  1  6
 11 12  1  0
 12 13  2  0
 12 14  1  0
 14 15  1  0
 15 16  2  0
 16 17  1  0
 17 18  2  0
 18 19  1  0
 19 20  2  0
 20 21  1  0
 21 22  2  0
 22 23  1  0
 23 24  2  0
 14 25  1  0
 25 26  1  0
 26 27  1  6
 11 28  1  0
 28 29  2  0
 29 30  1  0
 30 31  1  0
 30 32  2  0
 32 33  1  0
 33 34  2  0
 34 35  1  0
 35 36  2  0
  7  3  1  0
 35  9  1  0
 26 11  1  0
 34 28  1  0
 24 15  1  0
 24 19  1  0
M  END
$$$$

     RDKit          3D

 35 40  0  0  0  0  0  0  0  0999 V2000
    7.1395   -1.2619   24.2054 C   0  0  0  0  0  0  0  0  0  0  0  0
    7.9396   -1.1650   22.8969 C   0  0  1  0  0  0  0  0  0  0  0  0
    7.0765   -1.5653   21.6791 C   0  0  0  0  0  0  0  0  0  0  0  0
    6.7983   -0.3089   21.0263 N   0  0  0  0  0  0  0  0  0  0  0  0
    5.8685   -0.1596   19.9760 C   0  0  0  0  0  0  0  0  0  0  0  0
    6.0693   -0.7865   18.7746 C   0  0  0  0  0  0  0  0  0  0  0  0
    5.2646   -0.6430   17.6956 N   0  0  0  0  0  0  0  0  0  0  0  0
    4.2056    0.1200   17.8360 C   0  0  0  0  0  0  0  0  0  0  0  0
    3.8525    0.7823   19.0469 C   0  0  0  0  0  0  0  0  0  0  0  0
    2.6741    1.5645   19.1643 C   0  0  0  0  0  0  0  0  0  0  0  0
    2.3304    2.1282   20.3611 C   0  0  0  0  0  0  0  0  0  0  0  0
    3.1645    1.9725   21.4896 C   0  0  0  0  0  0  0  0  0  0  0  0
    4.3391    1.2694   21.3881 C   0  0  0  0  0  0  0  0  0  0  0  0
    4.7045    0.6423   20.1632 C   0  0  0  0  0  0  0  0  0  0  0  0
    7.6809    0.7024   21.3369 C   0  0  0  0  0  0  0  0  0  0  0  0
    7.7706    1.7401   20.7229 O   0  0  0  0  0  0  0  0  0  0  0  0
    8.5238    0.2522   22.5487 C   0  0  1  0  0  0  0  0  0  0  0  0
    8.3827    1.2639   23.7144 C   0  0  0  0  0  0  0  0  0  0  0  0
    9.0042    2.5425   23.4113 N   0  0  0  0  0  0  0  0  0  0  0  0
    8.3822    3.7836   23.8608 C   0  0  0  0  0  0  0  0  0  0  0  0
    7.5689    4.4479   22.7769 C   0  0  0  0  0  0  0  0  0  0  0  0
    8.0658    5.5473   22.0816 C   0  0  0  0  0  0  0  0  0  0  0  0
    7.2270    6.1511   21.1613 C   0  0  0  0  0  0  0  0  0  0  0  0
    6.0006    5.6891   20.9215 N   0  0  0  0  0  0  0  0  0  0  0  0
    5.6412    4.6219   21.6231 C   0  0  0  0  0  0  0  0  0  0  0  0
    6.3432    3.9578   22.5416 N   0  0  0  0  0  0  0  0  0  0  0  0
   10.2660    2.6225   22.8853 C   0  0  0  0  0  0  0  0  0  0  0  0
   10.8967    3.6732   22.8491 O   0  0  0  0  0  0  0  0  0  0  0  0
   10.8333    1.3317   22.3761 C   0  0  0  0  0  0  0  0  0  0  0  0
   12.2106    1.2512   22.1508 C   0  0  0  0  0  0  0  0  0  0  0  0
   12.7866    0.0770   21.7041 C   0  0  0  0  0  0  0  0  0  0  0  0
   11.9327   -0.9742   21.3980 C   0  0  0  0  0  0  0  0  0  0  0  0
   12.4624   -2.1196   20.9391 F   0  0  0  0  0  0  0  0  0  0  0  0
   10.5625   -0.9041   21.5525 C   0  0  0  0  0  0  0  0  0  0  0  0
    9.9994    0.2247   22.1549 C   0  0  0  0  0  0  0  0  0  0  0  0
  2  1  1  1
  2  3  1  0
  3  4  1  0
  4  5  1  0
  5  6  2  0
  6  7  1  0
  7  8  2  0
  8  9  1  0
  9 10  2  0
 10 11  1  0
 11 12  2  0
 12 13  1  0
 13 14  2  0
  4 15  1  0
 15 16  2  0
 15 17  1  0
 17 18  1  1
 18 19  1  0
 19 20  1  0
 20 21  1  0
 21 22  2  0
 22 23  1  0
 23 24  2  0
 24 25  1  0
 25 26  2  0
 19 27  1  0
 27 28  2  0
 27 29  1  0
 29 30  2  0
 30 31  1  0
 31 32  2  0
 32 33  1  0
 32 34  1  0
 34 35  2  0
 17  2  1  0
 26 21  1  0
 35 29  1  0
 14  5  1  0
 35 17  1  0
 14  9  1  0
M  END
>  <cnnaffinities>  (120) 
[6.11844]

>  <score>  (120) 
6.11844

>  <index>  (120) 
58

>  <Smiles>  (120) 
C([C@]1(C(N(c2c(nc(c3c(c(c(c(c23)[H])[H])[H])[H])[H])[H])C(=O)[C@]21C(N(C(c1c(c(nc(n1)[H])[H])[H])([H])[H])C(=O)c1c(c(c(F)c(c21)[H])[H])[H])([H])[H])([H])[H])[H])([H])([H])[H]

>  <h>  (120) 
<NA>

>  <Training>  (120) 
True

>  <Success>  (120) 
True

>  <enamine_searched>  (120) 
False

>  <enamine_id>  (120) 
nan

$$$$

     RDKit          3D

 22 25  0  0  0  0  0  0  0  0999 V2000
   -8.5920   -0.6836  -21.1098 O   0  0  0  0  0  0  0  0  0  0  0  0
   -7.7130   -1.1328  -21.8236 C   0  0  0  0  0  0  0  0  0  0  0  0
   -6.3538   -0.4100  -21.8408 C   0  0  0  0  0  0  0  0  0  0  0  0
   -5.5660   -0.3561  -20.5266 C   0  0  0  0  0  0  0  0  0  0  0  0
   -6.1201   -0.7241  -19.2839 C   0  0  0  0  0  0  0  0  0  0  0  0
   -5.4540   -0.6405  -18.1200 N   0  0  0  0  0  0  0  0  0  0  0  0
   -4.1970   -0.1651  -18.1333 C   0  0  0  0  0  0  0  0  0  0  0  0
   -3.5436    0.2072  -19.3111 C   0  0  0  0  0  0  0  0  0  0  0  0
   -2.2191    0.6749  -19.2949 C   0  0  0  0  0  0  0  0  0  0  0  0
   -1.5855    1.0362  -20.4914 C   0  0  0  0  0  0  0  0  0  0  0  0
   -2.2817    0.9614  -21.7035 C   0  0  0  0  0  0  0  0  0  0  0  0
   -3.6072    0.5114  -21.7120 C   0  0  0  0  0  0  0  0  0  0  0  0
   -4.2426    0.1151  -20.5292 C   0  0  0  0  0  0  0  0  0  0  0  0
   -8.0178   -2.2125  -22.6490 N   0  0  0  0  0  0  0  0  0  0  0  0
   -7.2034   -2.4622  -23.8302 C   0  0  0  0  0  0  0  0  0  0  0  0
   -7.7741   -1.5536  -24.9195 C   0  0  0  0  0  0  0  0  0  0  0  0
   -9.1994   -2.0457  -25.2127 C   0  0  0  0  0  0  0  0  0  0  0  0
   -9.7949   -1.4964  -26.5039 C   0  0  0  0  0  0  0  0  0  0  0  0
  -10.0344   -2.9300  -26.9718 C   0  0  0  0  0  0  0  0  0  0  0  0
   -9.2846   -3.4711  -25.7626 C   0  0  0  0  0  0  0  0  0  0  0  0
  -10.0726   -1.9018  -23.9503 C   0  0  0  0  0  0  0  0  0  0  0  0
   -9.4156   -2.6564  -22.7749 C   0  0  0  0  0  0  0  0  0  0  0  0
  1  2  2  0
  2  3  1  0
  3  4  1  0
  4  5  2  0
  5  6  1  0
  6  7  2  0
  7  8  1  0
  8  9  2  0
  9 10  1  0
 10 11  2  0
 11 12  1  0
 12 13  2  0
  2 14  1  0
 14 15  1  0
 15 16  1  0
 16 17  1  0
 17 18  1  0
 18 19  1  0
 19 20  1  0
 17 21  1  0
 21 22  1  0
 13  4  1  0
 22 14  1  0
 13  8  1  0
 20 17  1  0
M  END
$$$$

     RDKit          3D

 22 25  0  0  0  0  0  0  0  0999 V2000
   -9.2598   -0.9545  -20.9266 O   0  0  0  0  0  0  0  0  0  0  0  0
   -8.5366   -1.4715  -21.7496 C   0  0  0  0  0  0  0  0  0  0  0  0
   -7.1405   -1.9520  -21.3575 C   0  0  0  0  0  0  0  0  0  0  0  0
   -6.4401   -1.1632  -20.2638 C   0  0  0  0  0  0  0  0  0  0  0  0
   -6.8165   -1.3420  -18.9519 C   0  0  0  0  0  0  0  0  0  0  0  0
   -6.1710   -0.8360  -17.8702 N   0  0  0  0  0  0  0  0  0  0  0  0
   -5.1141   -0.0982  -18.1006 C   0  0  0  0  0  0  0  0  0  0  0  0
   -4.6405    0.2337  -19.3975 C   0  0  0  0  0  0  0  0  0  0  0  0
   -3.5279    1.0906  -19.5889 C   0  0  0  0  0  0  0  0  0  0  0  0
   -3.1097    1.4131  -20.8492 C   0  0  0  0  0  0  0  0  0  0  0  0
   -3.7933    0.8957  -21.9713 C   0  0  0  0  0  0  0  0  0  0  0  0
   -4.8805    0.0702  -21.8110 C   0  0  0  0  0  0  0  0  0  0  0  0
   -5.3319   -0.2967  -20.5161 C   0  0  0  0  0  0  0  0  0  0  0  0
   -8.9831   -1.7409  -23.0530 N   0  0  0  0  0  0  0  0  0  0  0  0
   -8.2553   -1.0910  -24.1489 C   0  0  0  0  0  0  0  0  0  0  0  0
   -8.5456    0.4151  -24.1631 C   0  0  0  0  0  0  0  0  0  0  0  0
  -10.0539    0.7059  -24.2310 C   0  0  0  0  0  0  0  0  0  0  0  0
  -10.3174    2.1836  -24.0206 C   0  0  0  0  0  0  0  0  0  0  0  0
  -10.1307    3.2544  -25.0528 C   0  0  0  0  0  0  0  0  0  0  0  0
  -11.5145    2.8902  -24.5876 C   0  0  0  0  0  0  0  0  0  0  0  0
  -10.8442   -0.1001  -23.1958 C   0  0  0  0  0  0  0  0  0  0  0  0
  -10.4302   -1.5677  -23.2403 C   0  0  0  0  0  0  0  0  0  0  0  0
  1  2  2  0
  2  3  1  0
  3  4  1  0
  4  5  2  0
  5  6  1  0
  6  7  2  0
  7  8  1  0
  8  9  2  0
  9 10  1  0
 10 11  2  0
 11 12  1  0
 12 13  2  0
  2 14  1  0
 14 15  1  0
 15 16  1  0
 16 17  1  0
 17 18  1  0
 18 19  1  0
 19 20  1  0
 17 21  1  0
 21 22  1  0
 13  4  1  0
 22 14  1  0
 13  8  1  0
 20 18  1  0
M  END
$$$$

     RDKit          3D

 34 38  0  0  0  0  0  0  0  0999 V2000
   -7.0244    3.6305  -22.4811 C   0  0  0  0  0  0  0  0  0  0  0  0
   -7.7859    2.6746  -23.2593 N   0  0  0  0  0  0  0  0  0  0  0  0
   -7.4894    2.5129  -24.5668 C   0  0  0  0  0  0  0  0  0  0  0  0
   -6.7206    3.2409  -25.1812 O   0  0  0  0  0  0  0  0  0  0  0  0
   -8.1592    1.3583  -25.3226 C   0  0  0  0  0  0  0  0  0  0  0  0
   -8.9818    0.4548  -24.5603 N   0  0  0  0  0  0  0  0  0  0  0  0
   -8.5029   -0.8879  -24.2849 C   0  0  0  0  0  0  0  0  0  0  0  0
   -9.0726   -1.4195  -22.9457 C   0  0  2  0  0  0  0  0  0  0  0  0
   -8.4738   -0.5707  -21.7893 C   0  0  0  0  0  0  0  0  0  0  0  0
   -8.7658    0.5807  -21.5193 O   0  0  0  0  0  0  0  0  0  0  0  0
   -7.5108   -1.3087  -21.1441 N   0  0  0  0  0  0  0  0  0  0  0  0
   -6.6591   -0.7895  -20.1250 C   0  0  0  0  0  0  0  0  0  0  0  0
   -6.8836   -1.1543  -18.8196 C   0  0  0  0  0  0  0  0  0  0  0  0
   -6.1096   -0.7787  -17.7712 N   0  0  0  0  0  0  0  0  0  0  0  0
   -5.0838   -0.0036  -18.0206 C   0  0  0  0  0  0  0  0  0  0  0  0
   -4.7399    0.4636  -19.3210 C   0  0  0  0  0  0  0  0  0  0  0  0
   -3.6576    1.3593  -19.5291 C   0  0  0  0  0  0  0  0  0  0  0  0
   -3.3267    1.7594  -20.7923 C   0  0  0  0  0  0  0  0  0  0  0  0
   -4.0549    1.2870  -21.9059 C   0  0  0  0  0  0  0  0  0  0  0  0
   -5.1370    0.4582  -21.7273 C   0  0  0  0  0  0  0  0  0  0  0  0
   -5.5272    0.0425  -20.4219 C   0  0  0  0  0  0  0  0  0  0  0  0
   -7.2280   -2.5611  -21.8217 C   0  0  0  0  0  0  0  0  0  0  0  0
   -8.5381   -2.8254  -22.5667 C   0  0  2  0  0  0  0  0  0  0  0  0
   -8.3945   -3.8472  -23.6921 C   0  0  0  0  0  0  0  0  0  0  0  0
   -9.6251   -4.2161  -24.2806 O   0  0  0  0  0  0  0  0  0  0  0  0
  -10.5812   -1.3118  -23.0506 C   0  0  0  0  0  0  0  0  0  0  0  0
  -11.4734   -2.2789  -22.5719 C   0  0  0  0  0  0  0  0  0  0  0  0
  -12.8281   -1.9987  -22.5248 C   0  0  0  0  0  0  0  0  0  0  0  0
  -13.8835   -3.1425  -21.7394 Cl  0  0  0  0  0  0  0  0  0  0  0  0
  -13.3607   -0.8131  -23.0324 C   0  0  0  0  0  0  0  0  0  0  0  0
  -12.4951    0.1027  -23.5943 C   0  0  0  0  0  0  0  0  0  0  0  0
  -11.1269   -0.1525  -23.6191 C   0  0  0  0  0  0  0  0  0  0  0  0
  -10.2465    0.8710  -24.2535 C   0  0  0  0  0  0  0  0  0  0  0  0
  -10.6298    2.0138  -24.4728 O   0  0  0  0  0  0  0  0  0  0  0  0
  1  2  1  0
  2  3  1  0
  3  4  2  0
  3  5  1  0
  5  6  1  0
  6  7  1  0
  8  7  1  6
  8  9  1  0
  9 10  2  0
  9 11  1  0
 11 12  1  0
 12 13  2  0
 13 14  1  0
 14 15  2  0
 15 16  1  0
 16 17  2  0
 17 18  1  0
 18 19  2  0
 19 20  1  0
 20 21  2  0
 11 22  1  0
 22 23  1  0
 23 24  1  6
 24 25  1  0
  8 26  1  0
 26 27  2  0
 27 28  1  0
 28 29  1  0
 28 30  2  0
 30 31  1  0
 31 32  2  0
 32 33  1  0
 33 34  2  0
 33  6  1  0
 23  8  1  0
 32 26  1  0
 21 12  1  0
 21 16  1  0
M  END
$$$$

     RDKit          3D

 36 41  0  0  0  0  0  0  0  0999 V2000
   10.7089   -1.9684   24.4222 C   0  0  0  0  0  0  0  0  0  0  0  0
    9.6621   -1.0465   24.6056 O   0  0  0  0  0  0  0  0  0  0  0  0
    8.4827   -1.3874   23.9122 C   0  0  0  0  0  0  0  0  0  0  0  0
    8.4619   -0.8479   22.4794 C   0  0  1  0  0  0  0  0  0  0  0  0
    7.1875   -1.2708   21.7281 C   0  0  0  0  0  0  0  0  0  0  0  0
    6.9374   -0.1609   20.8378 N   0  0  0  0  0  0  0  0  0  0  0  0
    5.9077   -0.1191   19.8706 C   0  0  0  0  0  0  0  0  0  0  0  0
    6.0628   -0.7861   18.6839 C   0  0  0  0  0  0  0  0  0  0  0  0
    5.2259   -0.6728   17.6260 N   0  0  0  0  0  0  0  0  0  0  0  0
    4.1736    0.0989   17.7753 C   0  0  0  0  0  0  0  0  0  0  0  0
    3.8456    0.7749   18.9848 C   0  0  0  0  0  0  0  0  0  0  0  0
    2.6635    1.5508   19.1114 C   0  0  0  0  0  0  0  0  0  0  0  0
    2.3311    2.1282   20.3054 C   0  0  0  0  0  0  0  0  0  0  0  0
    3.1833    1.9852   21.4224 C   0  0  0  0  0  0  0  0  0  0  0  0
    4.3552    1.2763   21.3155 C   0  0  0  0  0  0  0  0  0  0  0  0
    4.7214    0.6534   20.0849 C   0  0  0  0  0  0  0  0  0  0  0  0
    7.7181    0.9539   21.0640 C   0  0  0  0  0  0  0  0  0  0  0  0
    7.6659    1.9463   20.3750 O   0  0  0  0  0  0  0  0  0  0  0  0
    8.5678    0.7007   22.3352 C   0  0  1  0  0  0  0  0  0  0  0  0
    7.8918    1.4586   23.5023 C   0  0  0  0  0  0  0  0  0  0  0  0
    7.9468    2.8886   23.2455 N   0  0  0  0  0  0  0  0  0  0  0  0
    6.8235    3.7233   23.6284 C   0  0  0  0  0  0  0  0  0  0  0  0
    6.7111    3.8877   25.1157 C   0  0  0  0  0  0  0  0  0  0  0  0
    5.9706    3.1499   25.9113 N   0  0  0  0  0  0  0  0  0  0  0  0
    6.1948    3.6538   27.1718 C   0  0  0  0  0  0  0  0  0  0  0  0
    7.0724    4.7003   27.1287 C   0  0  0  0  0  0  0  0  0  0  0  0
    7.4127    4.8320   25.7987 N   0  0  0  0  0  0  0  0  0  0  0  0
    9.1516    3.5087   23.0649 C   0  0  0  0  0  0  0  0  0  0  0  0
    9.3257    4.6868   23.3657 O   0  0  0  0  0  0  0  0  0  0  0  0
   10.2175    2.6387   22.4810 C   0  0  0  0  0  0  0  0  0  0  0  0
   11.4678    3.2123   22.2337 C   0  0  0  0  0  0  0  0  0  0  0  0
   12.5561    2.4068   21.9508 C   0  0  0  0  0  0  0  0  0  0  0  0
   12.3503    1.0311   21.8490 C   0  0  0  0  0  0  0  0  0  0  0  0
   13.6943   -0.0235   21.5308 Cl  0  0  0  0  0  0  0  0  0  0  0  0
   11.0895    0.4683   21.9578 C   0  0  0  0  0  0  0  0  0  0  0  0
    9.9833    1.2664   22.2622 C   0  0  0  0  0  0  0  0  0  0  0  0
  1  2  1  0
  2  3  1  0
  4  3  1  1
  4  5  1  0
  5  6  1  0
  6  7  1  0
  7  8  2  0
  8  9  1  0
  9 10  2  0
 10 11  1  0
 11 12  2  0
 12 13  1  0
 13 14  2  0
 14 15  1  0
 15 16  2  0
  6 17  1  0
 17 18  2  0
 17 19  1  0
 19 20  1  1
 20 21  1  0
 21 22  1  0
 22 23  1  0
 23 24  2  0
 24 25  1  0
 25 26  2  0
 26 27  1  0
 21 28  1  0
 28 29  2  0
 28 30  1  0
 30 31  2  0
 31 32  1  0
 32 33  2  0
 33 34  1  0
 33 35  1  0
 35 36  2  0
 19  4  1  0
 27 23  1  0
 36 30  1  0
 16  7  1  0
 36 19  1  0
 16 11  1  0
M  END
$$$$

     RDKit          3D

 22 25  0  0  0  0  0  0  0  0999 V2000
    5.2476   -1.8077   22.1126 O   0  0  0  0  0  0  0  0  0  0  0  0
    6.4226   -1.4887   22.0599 C   0  0  0  0  0  0  0  0  0  0  0  0
    6.8735   -0.4002   21.0573 C   0  0  0  0  0  0  0  0  0  0  0  0
    5.8639   -0.1929   19.9557 C   0  0  0  0  0  0  0  0  0  0  0  0
    6.0352   -0.8148   18.7475 C   0  0  0  0  0  0  0  0  0  0  0  0
    5.2275   -0.6858   17.6634 N   0  0  0  0  0  0  0  0  0  0  0  0
    4.1673    0.0740   17.8028 C   0  0  0  0  0  0  0  0  0  0  0  0
    3.8191    0.7288   19.0167 C   0  0  0  0  0  0  0  0  0  0  0  0
    2.6233    1.4804   19.1484 C   0  0  0  0  0  0  0  0  0  0  0  0
    2.3017    2.0941   20.3270 C   0  0  0  0  0  0  0  0  0  0  0  0
    3.1824    2.0039   21.4259 C   0  0  0  0  0  0  0  0  0  0  0  0
    4.3520    1.2896   21.3236 C   0  0  0  0  0  0  0  0  0  0  0  0
    4.6960    0.6122   20.1218 C   0  0  0  0  0  0  0  0  0  0  0  0
    7.3747   -2.0905   22.8534 N   0  0  0  0  0  0  0  0  0  0  0  0
    7.1130   -3.4195   23.4118 C   0  0  0  0  0  0  0  0  0  0  0  0
    7.4647   -3.4853   24.8957 C   0  0  0  0  0  0  0  0  0  0  0  0
    8.8219   -2.8959   25.1215 C   0  0  0  0  0  0  0  0  0  0  0  0
    9.8220   -3.1966   26.5034 S   0  0  0  0  0  0  0  0  0  0  0  0
   11.0218   -2.1017   25.9189 C   0  0  0  0  0  0  0  0  0  0  0  0
   10.6677   -1.5461   24.7245 C   0  0  0  0  0  0  0  0  0  0  0  0
    9.3966   -2.0100   24.2658 C   0  0  0  0  0  0  0  0  0  0  0  0
    8.7310   -1.5793   22.9849 C   0  0  0  0  0  0  0  0  0  0  0  0
  1  2  2  0
  2  3  1  0
  3  4  1  0
  4  5  2  0
  5  6  1  0
  6  7  2  0
  7  8  1  0
  8  9  2  0
  9 10  1  0
 10 11  2  0
 11 12  1  0
 12 13  2  0
  2 14  1  0
 14 15  1  0
 15 16  1  0
 16 17  1  0
 17 18  1  0
 18 19  1  0
 19 20  2  0
 20 21  1  0
 21 22  1  0
 13  4  1  0
 22 14  1  0
 13  8  1  0
 21 17  2  0
M  END
$$$$

     RDKit          3D

 34 39  0  0  0  0  0  0  0  0999 V2000
   -8.4188   -3.8348  -23.7088 C   0  0  0  0  0  0  0  0  0  0  0  0
   -8.5244   -2.8424  -22.5555 C   0  0  1  0  0  0  0  0  0  0  0  0
   -7.2099   -2.5843  -21.8018 C   0  0  0  0  0  0  0  0  0  0  0  0
   -7.4872   -1.3283  -21.1410 N   0  0  0  0  0  0  0  0  0  0  0  0
   -6.6440   -0.8162  -20.1203 C   0  0  0  0  0  0  0  0  0  0  0  0
   -6.8745   -1.1640  -18.8118 C   0  0  0  0  0  0  0  0  0  0  0  0
   -6.1092   -0.7698  -17.7644 N   0  0  0  0  0  0  0  0  0  0  0  0
   -5.0870    0.0108  -18.0108 C   0  0  0  0  0  0  0  0  0  0  0  0
   -4.7488    0.4699  -19.3164 C   0  0  0  0  0  0  0  0  0  0  0  0
   -3.6632    1.3565  -19.5363 C   0  0  0  0  0  0  0  0  0  0  0  0
   -3.3239    1.7585  -20.7952 C   0  0  0  0  0  0  0  0  0  0  0  0
   -4.0627    1.2835  -21.8999 C   0  0  0  0  0  0  0  0  0  0  0  0
   -5.1497    0.4590  -21.7171 C   0  0  0  0  0  0  0  0  0  0  0  0
   -5.5239    0.0279  -20.4148 C   0  0  0  0  0  0  0  0  0  0  0  0
   -8.4797   -0.5933  -21.7653 C   0  0  0  0  0  0  0  0  0  0  0  0
   -8.8217    0.5188  -21.4406 O   0  0  0  0  0  0  0  0  0  0  0  0
   -9.0628   -1.4341  -22.9297 C   0  0  1  0  0  0  0  0  0  0  0  0
   -8.4992   -0.9058  -24.2766 C   0  0  0  0  0  0  0  0  0  0  0  0
   -8.9775    0.4384  -24.5819 N   0  0  0  0  0  0  0  0  0  0  0  0
   -8.1481    1.3703  -25.3141 C   0  0  0  0  0  0  0  0  0  0  0  0
   -7.6832    2.5332  -24.4883 C   0  0  0  0  0  0  0  0  0  0  0  0
   -7.6792    3.8108  -24.9447 N   0  0  0  0  0  0  0  0  0  0  0  0
   -7.1357    4.4834  -23.9514 C   0  0  0  0  0  0  0  0  0  0  0  0
   -6.8172    3.6322  -22.9609 N   0  0  0  0  0  0  0  0  0  0  0  0
   -7.1547    2.3705  -23.2845 N   0  0  0  0  0  0  0  0  0  0  0  0
  -10.2253    0.8778  -24.2454 C   0  0  0  0  0  0  0  0  0  0  0  0
  -10.5997    2.0279  -24.4435 O   0  0  0  0  0  0  0  0  0  0  0  0
  -11.1140   -0.1462  -23.6222 C   0  0  0  0  0  0  0  0  0  0  0  0
  -12.4819    0.1206  -23.5958 C   0  0  0  0  0  0  0  0  0  0  0  0
  -13.3573   -0.7936  -23.0394 C   0  0  0  0  0  0  0  0  0  0  0  0
  -12.8272   -1.9687  -22.5163 C   0  0  0  0  0  0  0  0  0  0  0  0
  -13.6616   -2.8513  -21.9346 F   0  0  0  0  0  0  0  0  0  0  0  0
  -11.4762   -2.2582  -22.5460 C   0  0  0  0  0  0  0  0  0  0  0  0
  -10.5775   -1.3093  -23.0460 C   0  0  0  0  0  0  0  0  0  0  0  0
  2  1  1  6
  2  3  1  0
  3  4  1  0
  4  5  1  0
  5  6  2  0
  6  7  1  0
  7  8  2  0
  8  9  1  0
  9 10  2  0
 10 11  1  0
 11 12  2  0
 12 13  1  0
 13 14  2  0
  4 15  1  0
 15 16  2  0
 15 17  1  0
 17 18  1  6
 18 19  1  0
 19 20  1  0
 20 21  1  0
 21 22  1  0
 22 23  2  0
 23 24  1  0
 24 25  1  0
 19 26  1  0
 26 27  2  0
 26 28  1  0
 28 29  2  0
 29 30  1  0
 30 31  2  0
 31 32  1  0
 31 33  1  0
 33 34  2  0
 17  2  1  0
 25 21  2  0
 34 28  1  0
 14  5  1  0
 34 17  1  0
 14  9  1  0
M  END
$$$$

     RDKit          3D

 41 47  0  0  0  0  0  0  0  0999 V2000
    9.1101    4.7809   22.9086 O   0  0  0  0  0  0  0  0  0  0  0  0
    8.9878    3.5616   22.8185 C   0  0  0  0  0  0  0  0  0  0  0  0
   10.0765    2.7175   22.2849 C   0  0  0  0  0  0  0  0  0  0  0  0
   11.2812    3.2955   21.9939 C   0  0  0  0  0  0  0  0  0  0  0  0
   12.4478    2.5008   21.7925 C   0  0  0  0  0  0  0  0  0  0  0  0
   12.1934    1.1636   21.6726 C   0  0  0  0  0  0  0  0  0  0  0  0
   10.6396    1.0964   24.1988 Cl  0  0  0  0  0  0  0  0  0  0  0  0
   11.0626    0.4688   21.7210 C   0  0  0  0  0  0  0  0  0  0  0  0
   10.0064    1.2396   22.5042 C   0  0  0  0  0  0  0  0  0  0  0  0
    8.5456    0.6908   22.4964 C   0  0  1  0  0  0  0  0  0  0  0  0
    7.7314    1.4979   23.5280 C   0  0  0  0  0  0  0  0  0  0  0  0
    7.8459    2.9283   23.2517 N   0  0  0  0  0  0  0  0  0  0  0  0
    6.7464    3.7697   23.6673 C   0  0  0  0  0  0  0  0  0  0  0  0
    6.6109    3.8665   25.1709 C   0  0  0  0  0  0  0  0  0  0  0  0
    5.9152    2.9464   25.9228 C   0  0  0  0  0  0  0  0  0  0  0  0
    5.8628    3.1526   27.2982 C   0  0  0  0  0  0  0  0  0  0  0  0
    6.4537    4.1704   27.9174 N   0  0  0  0  0  0  0  0  0  0  0  0
    7.1458    5.0499   27.2040 N   0  0  0  0  0  0  0  0  0  0  0  0
    7.2267    4.9007   25.8854 C   0  0  0  0  0  0  0  0  0  0  0  0
    7.8652    0.9604   21.1411 C   0  0  0  0  0  0  0  0  0  0  0  0
    7.9700    1.9539   20.4643 O   0  0  0  0  0  0  0  0  0  0  0  0
    7.0468   -0.1186   20.8460 N   0  0  0  0  0  0  0  0  0  0  0  0
    5.9873   -0.0631   19.8901 C   0  0  0  0  0  0  0  0  0  0  0  0
    6.1123   -0.7605   18.7161 C   0  0  0  0  0  0  0  0  0  0  0  0
    5.2639   -0.6691   17.6610 N   0  0  0  0  0  0  0  0  0  0  0  0
    4.2107    0.1004   17.7949 C   0  0  0  0  0  0  0  0  0  0  0  0
    3.8818    0.7885   18.9957 C   0  0  0  0  0  0  0  0  0  0  0  0
    2.6941    1.5613   19.1077 C   0  0  0  0  0  0  0  0  0  0  0  0
    2.3451    2.1348   20.2969 C   0  0  0  0  0  0  0  0  0  0  0  0
    3.1824    1.9723   21.4225 C   0  0  0  0  0  0  0  0  0  0  0  0
    4.3568    1.2642   21.3301 C   0  0  0  0  0  0  0  0  0  0  0  0
    4.7618    0.6710   20.1023 C   0  0  0  0  0  0  0  0  0  0  0  0
    7.2206   -1.2153   21.7809 C   0  0  0  0  0  0  0  0  0  0  0  0
    8.4742   -0.8426   22.5841 C   0  0  2  0  0  0  0  0  0  0  0  0
    8.5011   -1.6194   23.9184 C   0  0  0  0  0  0  0  0  0  0  0  0
    9.7183   -1.6141   24.7175 N   0  0  0  0  0  0  0  0  0  0  0  0
   10.9702   -1.9140   24.2605 C   0  0  0  0  0  0  0  0  0  0  0  0
   12.0579   -1.4515   24.8195 N   0  0  0  0  0  0  0  0  0  0  0  0
   13.1888   -1.8402   24.1694 N   0  0  0  0  0  0  0  0  0  0  0  0
   12.9518   -2.6088   23.1621 C   0  0  0  0  0  0  0  0  0  0  0  0
   11.2611   -2.9512   22.9057 S   0  0  0  0  0  0  0  0  0  0  0  0
  1  2  2  0
  2  3  1  0
  3  4  2  0
  4  5  1  0
  5  6  2  0
  6  7  1  0
  6  8  1  0
  8  9  2  0
  9 10  1  0
 10 11  1  1
 11 12  1  0
 12 13  1  0
 13 14  1  0
 14 15  2  0
 15 16  1  0
 16 17  2  0
 17 18  1  0
 18 19  2  0
 10 20  1  0
 20 21  2  0
 20 22  1  0
 22 23  1  0
 23 24  2  0
 24 25  1  0
 25 26  2  0
 26 27  1  0
 27 28  2  0
 28 29  1  0
 29 30  2  0
 30 31  1  0
 31 32  2  0
 22 33  1  0
 33 34  1  0
 34 35  1  1
 35 36  1  0
 36 37  1  0
 37 38  2  0
 38 39  1  0
 39 40  2  0
 40 41  1  0
 12  2  1  0
 19 14  1  0
 32 23  1  0
 41 37  1  0
  9  3  1  0
 34 10  1  0
 32 27  1  0
M  END
$$$$

     RDKit          3D

 34 39  0  0  0  0  0  0  0  0999 V2000
   -8.4218   -3.8295  -23.7059 C   0  0  0  0  0  0  0  0  0  0  0  0
   -8.5276   -2.8355  -22.5584 C   0  0  1  0  0  0  0  0  0  0  0  0
   -7.2183   -2.5691  -21.8066 C   0  0  0  0  0  0  0  0  0  0  0  0
   -7.4965   -1.3129  -21.1498 N   0  0  0  0  0  0  0  0  0  0  0  0
   -6.6533   -0.8053  -20.1304 C   0  0  0  0  0  0  0  0  0  0  0  0
   -6.8770   -1.1633  -18.8222 C   0  0  0  0  0  0  0  0  0  0  0  0
   -6.1104   -0.7719  -17.7755 N   0  0  0  0  0  0  0  0  0  0  0  0
   -5.0838    0.0076  -18.0174 C   0  0  0  0  0  0  0  0  0  0  0  0
   -4.7545    0.4739  -19.3231 C   0  0  0  0  0  0  0  0  0  0  0  0
   -3.6674    1.3607  -19.5364 C   0  0  0  0  0  0  0  0  0  0  0  0
   -3.3245    1.7582  -20.7975 C   0  0  0  0  0  0  0  0  0  0  0  0
   -4.0485    1.2688  -21.9057 C   0  0  0  0  0  0  0  0  0  0  0  0
   -5.1393    0.4525  -21.7268 C   0  0  0  0  0  0  0  0  0  0  0  0
   -5.5276    0.0347  -20.4221 C   0  0  0  0  0  0  0  0  0  0  0  0
   -8.4812   -0.5812  -21.7836 C   0  0  0  0  0  0  0  0  0  0  0  0
   -8.8214    0.5351  -21.4691 O   0  0  0  0  0  0  0  0  0  0  0  0
   -9.0660   -1.4329  -22.9391 C   0  0  1  0  0  0  0  0  0  0  0  0
   -8.4998   -0.9202  -24.2870 C   0  0  0  0  0  0  0  0  0  0  0  0
   -8.9944    0.4092  -24.6157 N   0  0  0  0  0  0  0  0  0  0  0  0
   -8.1297    1.3263  -25.3193 C   0  0  0  0  0  0  0  0  0  0  0  0
   -7.3838    2.2926  -24.4342 C   0  0  0  0  0  0  0  0  0  0  0  0
   -7.8115    2.9725  -23.3402 C   0  0  0  0  0  0  0  0  0  0  0  0
   -6.7930    3.7821  -22.9292 O   0  0  0  0  0  0  0  0  0  0  0  0
   -5.7896    3.5292  -23.7863 C   0  0  0  0  0  0  0  0  0  0  0  0
   -6.0661    2.6530  -24.6946 N   0  0  0  0  0  0  0  0  0  0  0  0
  -10.2252    0.8689  -24.2528 C   0  0  0  0  0  0  0  0  0  0  0  0
  -10.5707    2.0368  -24.4174 O   0  0  0  0  0  0  0  0  0  0  0  0
  -11.1209   -0.1493  -23.6315 C   0  0  0  0  0  0  0  0  0  0  0  0
  -12.4902    0.1198  -23.6006 C   0  0  0  0  0  0  0  0  0  0  0  0
  -13.3621   -0.7938  -23.0401 C   0  0  0  0  0  0  0  0  0  0  0  0
  -12.8286   -1.9682  -22.5226 C   0  0  0  0  0  0  0  0  0  0  0  0
  -13.6607   -2.8616  -21.9571 F   0  0  0  0  0  0  0  0  0  0  0  0
  -11.4778   -2.2589  -22.5540 C   0  0  0  0  0  0  0  0  0  0  0  0
  -10.5804   -1.3075  -23.0495 C   0  0  0  0  0  0  0  0  0  0  0  0
  2  1  1  6
  2  3  1  0
  3  4  1  0
  4  5  1  0
  5  6  2  0
  6  7  1  0
  7  8  2  0
  8  9  1  0
  9 10  2  0
 10 11  1  0
 11 12  2  0
 12 13  1  0
 13 14  2  0
  4 15  1  0
 15 16  2  0
 15 17  1  0
 17 18  1  6
 18 19  1  0
 19 20  1  0
 20 21  1  0
 21 22  2  0
 22 23  1  0
 23 24  1  0
 24 25  2  0
 19 26  1  0
 26 27  2  0
 26 28  1  0
 28 29  2  0
 29 30  1  0
 30 31  2  0
 31 32  1  0
 31 33  1  0
 33 34  2  0
 17  2  1  0
 25 21  1  0
 34 28  1  0
 14  5  1  0
 34 17  1  0
 14  9  1  0
M  END
$$$$

     RDKit          3D

 38 44  0  0  0  0  0  0  0  0999 V2000
    8.4723   -1.3978   23.9477 C   0  0  0  0  0  0  0  0  0  0  0  0
    8.3882   -0.8252   22.5377 C   0  0  1  0  0  0  0  0  0  0  0  0
    7.1331   -1.2437   21.7593 C   0  0  0  0  0  0  0  0  0  0  0  0
    6.9245   -0.1375   20.8496 N   0  0  0  0  0  0  0  0  0  0  0  0
    5.9089   -0.0917   19.8645 C   0  0  0  0  0  0  0  0  0  0  0  0
    6.0548   -0.7717   18.6837 C   0  0  0  0  0  0  0  0  0  0  0  0
    5.2107   -0.6628   17.6297 N   0  0  0  0  0  0  0  0  0  0  0  0
    4.1599    0.1135   17.7669 C   0  0  0  0  0  0  0  0  0  0  0  0
    3.8369    0.7977   18.9740 C   0  0  0  0  0  0  0  0  0  0  0  0
    2.6626    1.5881   19.1072 C   0  0  0  0  0  0  0  0  0  0  0  0
    2.3410    2.1750   20.3022 C   0  0  0  0  0  0  0  0  0  0  0  0
    3.2010    2.0307   21.4131 C   0  0  0  0  0  0  0  0  0  0  0  0
    4.3571    1.2952   21.3027 C   0  0  0  0  0  0  0  0  0  0  0  0
    4.7188    0.6742   20.0712 C   0  0  0  0  0  0  0  0  0  0  0  0
    7.6746    0.9807   21.1370 C   0  0  0  0  0  0  0  0  0  0  0  0
    7.6453    2.0019   20.4761 O   0  0  0  0  0  0  0  0  0  0  0  0
    8.4942    0.7162   22.4201 C   0  0  1  0  0  0  0  0  0  0  0  0
    7.8147    1.4599   23.6099 C   0  0  0  0  0  0  0  0  0  0  0  0
    7.9315    2.9047   23.5041 N   0  0  0  0  0  0  0  0  0  0  0  0
    6.7986    3.7735   23.7911 C   0  0  0  0  0  0  0  0  0  0  0  0
    6.2290    4.3704   22.5042 C   0  0  0  0  0  0  0  0  0  0  0  0
    5.0554    5.2347   22.7553 N   0  0  2  0  0  0  0  0  0  0  0  0
    4.4066    5.7675   21.5112 C   0  0  0  0  0  0  0  0  0  0  0  0
    3.5606    6.9469   21.9862 C   0  0  0  0  0  0  0  0  0  0  0  0
    4.2582    7.4877   23.2446 C   0  0  0  0  0  0  0  0  0  0  0  0
    4.7173    8.9573   23.2584 C   0  0  0  0  0  0  0  0  0  0  0  0
    3.8317    9.2911   24.3339 O   0  0  0  0  0  0  0  0  0  0  0  0
    3.3440    7.9464   24.3974 C   0  0  0  0  0  0  0  0  0  0  0  0
    5.3385    6.4595   23.5873 C   0  0  0  0  0  0  0  0  0  0  0  0
    9.0873    3.5063   23.0947 C   0  0  0  0  0  0  0  0  0  0  0  0
    9.2626    4.7199   23.1764 O   0  0  0  0  0  0  0  0  0  0  0  0
   10.1500    2.6014   22.5377 C   0  0  0  0  0  0  0  0  0  0  0  0
   11.4100    3.1628   22.3272 C   0  0  0  0  0  0  0  0  0  0  0  0
   12.4903    2.3472   22.0615 C   0  0  0  0  0  0  0  0  0  0  0  0
   12.2938    0.9785   21.9569 C   0  0  0  0  0  0  0  0  0  0  0  0
   13.6776   -0.0372   21.6727 Cl  0  0  0  0  0  0  0  0  0  0  0  0
   11.0337    0.4156   22.0419 C   0  0  0  0  0  0  0  0  0  0  0  0
    9.9206    1.2345   22.3265 C   0  0  0  0  0  0  0  0  0  0  0  0
  2  1  1  1
  2  3  1  0
  3  4  1  0
  4  5  1  0
  5  6  2  0
  6  7  1  0
  7  8  2  0
  8  9  1  0
  9 10  2  0
 10 11  1  0
 11 12  2  0
 12 13  1  0
 13 14  2  0
  4 15  1  0
 15 16  2  0
 15 17  1  0
 17 18  1  1
 18 19  1  0
 19 20  1  0
 20 21  1  0
 22 21  1  6
 22 23  1  0
 23 24  1  0
 24 25  1  0
 25 26  1  0
 26 27  1  0
 27 28  1  0
 25 29  1  0
 19 30  1  0
 30 31  2  0
 30 32  1  0
 32 33  2  0
 33 34  1  0
 34 35  2  0
 35 36  1  0
 35 37  1  0
 37 38  2  0
 17  2  1  0
 29 22  1  0
 38 32  1  0
 14  5  1  0
 38 17  1  0
 14  9  1  0
 28 25  1  0
M  CHG  1  22   1
M  END
$$$$

     RDKit          3D

 24 27  0  0  0  0  0  0  0  0999 V2000
   -6.4541   -7.1166  -22.3733 C   0  0  0  0  0  0  0  0  0  0  0  0
   -7.7709   -6.7762  -23.0662 C   0  0  0  0  0  0  0  0  0  0  0  0
   -7.6738   -5.7154  -24.1798 C   0  0  1  0  0  0  0  0  0  0  0  0
   -6.9623   -6.1569  -25.4484 C   0  0  0  0  0  0  0  0  0  0  0  0
   -5.5630   -6.4351  -25.6188 C   0  0  0  0  0  0  0  0  0  0  0  0
   -5.2535   -6.8443  -26.8819 C   0  0  0  0  0  0  0  0  0  0  0  0
   -6.6369   -6.8285  -27.9058 S   0  0  0  0  0  0  0  0  0  0  0  0
   -7.6489   -6.2950  -26.6166 C   0  0  0  0  0  0  0  0  0  0  0  0
   -9.0960   -5.9770  -26.8294 C   0  0  0  0  0  0  0  0  0  0  0  0
   -9.7943   -6.0079  -25.4734 C   0  0  0  0  0  0  0  0  0  0  0  0
   -9.0275   -5.2075  -24.5077 N   0  0  0  0  0  0  0  0  0  0  0  0
   -9.3722   -3.8680  -24.4737 C   0  0  0  0  0  0  0  0  0  0  0  0
  -10.1935   -3.4236  -25.2562 O   0  0  0  0  0  0  0  0  0  0  0  0
   -8.7458   -2.9824  -23.3731 C   0  0  0  0  0  0  0  0  0  0  0  0
   -9.2503   -1.5752  -23.5290 C   0  0  0  0  0  0  0  0  0  0  0  0
   -8.4390   -0.5754  -24.0022 C   0  0  0  0  0  0  0  0  0  0  0  0
   -8.8688    0.6631  -24.3586 N   0  0  0  0  0  0  0  0  0  0  0  0
  -10.1546    0.9142  -24.2445 C   0  0  0  0  0  0  0  0  0  0  0  0
  -11.1101   -0.0052  -23.7209 C   0  0  0  0  0  0  0  0  0  0  0  0
  -12.5079    0.2599  -23.6721 C   0  0  0  0  0  0  0  0  0  0  0  0
  -13.3719   -0.6490  -23.1167 C   0  0  0  0  0  0  0  0  0  0  0  0
  -12.8912   -1.8920  -22.6499 C   0  0  0  0  0  0  0  0  0  0  0  0
  -11.5583   -2.2082  -22.7564 C   0  0  0  0  0  0  0  0  0  0  0  0
  -10.6341   -1.2781  -23.3146 C   0  0  0  0  0  0  0  0  0  0  0  0
  1  2  1  0
  3  2  1  1
  3  4  1  0
  4  5  1  0
  5  6  2  0
  6  7  1  0
  7  8  1  0
  8  9  1  0
  9 10  1  0
 10 11  1  0
 11 12  1  0
 12 13  2  0
 12 14  1  0
 14 15  1  0
 15 16  2  0
 16 17  1  0
 17 18  2  0
 18 19  1  0
 19 20  2  0
 20 21  1  0
 21 22  2  0
 22 23  1  0
 23 24  2  0
 11  3  1  0
 24 15  1  0
  8  4  2  0
 24 19  1  0
M  END
$$$$

     RDKit          3D

 34 39  0  0  0  0  0  0  0  0999 V2000
    4.8598    4.6655   20.5863 C   0  0  0  0  0  0  0  0  0  0  0  0
    6.0431    4.7701   21.4081 N   0  0  0  0  0  0  0  0  0  0  0  0
    7.0657    5.6151   21.1768 C   0  0  0  0  0  0  0  0  0  0  0  0
    8.0112    5.3803   22.1442 C   0  0  0  0  0  0  0  0  0  0  0  0
    7.4601    4.3486   22.9350 C   0  0  0  0  0  0  0  0  0  0  0  0
    8.0514    3.6578   24.1385 C   0  0  0  0  0  0  0  0  0  0  0  0
    8.8053    2.4654   23.7720 N   0  0  0  0  0  0  0  0  0  0  0  0
    8.1676    1.1664   23.8206 C   0  0  0  0  0  0  0  0  0  0  0  0
    8.4701    0.2706   22.5986 C   0  0  1  0  0  0  0  0  0  0  0  0
    7.9078   -1.1401   22.9002 C   0  0  0  0  0  0  0  0  0  0  0  0
    7.0682   -1.5726   21.6941 C   0  0  0  0  0  0  0  0  0  0  0  0
    6.7831   -0.3059   21.0542 N   0  0  0  0  0  0  0  0  0  0  0  0
    5.8733   -0.1455   19.9917 C   0  0  0  0  0  0  0  0  0  0  0  0
    6.0899   -0.7679   18.7898 C   0  0  0  0  0  0  0  0  0  0  0  0
    5.2969   -0.6218   17.7043 N   0  0  0  0  0  0  0  0  0  0  0  0
    4.2393    0.1473   17.8429 C   0  0  0  0  0  0  0  0  0  0  0  0
    3.8879    0.8258   19.0463 C   0  0  0  0  0  0  0  0  0  0  0  0
    2.7107    1.6086   19.1594 C   0  0  0  0  0  0  0  0  0  0  0  0
    2.3555    2.1710   20.3549 C   0  0  0  0  0  0  0  0  0  0  0  0
    3.1945    2.0366   21.4817 C   0  0  0  0  0  0  0  0  0  0  0  0
    4.3691    1.3315   21.3895 C   0  0  0  0  0  0  0  0  0  0  0  0
    4.7300    0.6833   20.1710 C   0  0  0  0  0  0  0  0  0  0  0  0
    7.6933    0.6892   21.3352 C   0  0  0  0  0  0  0  0  0  0  0  0
    7.8431    1.6853   20.6621 O   0  0  0  0  0  0  0  0  0  0  0  0
    9.9610    0.3286   22.3460 C   0  0  0  0  0  0  0  0  0  0  0  0
   10.6183   -0.7318   21.7298 C   0  0  0  0  0  0  0  0  0  0  0  0
   11.9846   -0.6787   21.5247 C   0  0  0  0  0  0  0  0  0  0  0  0
   12.7785   -2.0775   20.8743 Cl  0  0  0  0  0  0  0  0  0  0  0  0
   12.7382    0.4529   21.8491 C   0  0  0  0  0  0  0  0  0  0  0  0
   12.0787    1.5342   22.3983 C   0  0  0  0  0  0  0  0  0  0  0  0
   10.7100    1.4661   22.6571 C   0  0  0  0  0  0  0  0  0  0  0  0
   10.0795    2.6501   23.3038 C   0  0  0  0  0  0  0  0  0  0  0  0
   10.6675    3.7172   23.3986 O   0  0  0  0  0  0  0  0  0  0  0  0
    6.2619    3.9858   22.4774 N   0  0  0  0  0  0  0  0  0  0  0  0
  1  2  1  0
  2  3  1  0
  3  4  2  0
  4  5  1  0
  5  6  1  0
  6  7  1  0
  7  8  1  0
  9  8  1  1
  9 10  1  0
 10 11  1  0
 11 12  1  0
 12 13  1  0
 13 14  2  0
 14 15  1  0
 15 16  2  0
 16 17  1  0
 17 18  2  0
 18 19  1  0
 19 20  2  0
 20 21  1  0
 21 22  2  0
 12 23  1  0
 23 24  2  0
  9 25  1  0
 25 26  2  0
 26 27  1  0
 27 28  1  0
 27 29  2  0
 29 30  1  0
 30 31  2  0
 31 32  1  0
 32 33  2  0
  5 34  2  0
 34  2  1  0
 32  7  1  0
 23  9  1  0
 31 25  1  0
 22 13  1  0
 22 17  1  0
M  END
>  <cnnaffinities>  (131) 
[5.9511]

>  <score>  (131) 
5.9511

>  <index>  (131) 
55

>  <Smiles>  (131) 
C(n1c(c(c(C(N2C([C@]3(C(C(N(c4c(nc(c5c(c(c(c(c45)[H])[H])[H])[H])[H])[H])C3=O)([H])[H])([H])[H])c3c(c(Cl)c(c(c3C2=O)[H])[H])[H])([H])[H])([H])[H])n1)[H])[H])([H])([H])[H]

>  <h>  (131) 
<NA>

>  <Training>  (131) 
True

>  <Success>  (131) 
True

>  <enamine_searched>  (131) 
False

>  <enamine_id>  (131) 
nan

$$$$

     RDKit          3D

 36 41  0  0  0  0  0  0  0  0999 V2000
    8.5219   -1.4041   23.9020 C   0  0  0  0  0  0  0  0  0  0  0  0
    8.4932   -0.8470   22.4788 C   0  0  1  0  0  0  0  0  0  0  0  0
    7.2118   -1.2617   21.7235 C   0  0  0  0  0  0  0  0  0  0  0  0
    6.9534   -0.1428   20.8471 N   0  0  0  0  0  0  0  0  0  0  0  0
    5.9210   -0.0998   19.8816 C   0  0  0  0  0  0  0  0  0  0  0  0
    6.0687   -0.7818   18.7014 C   0  0  0  0  0  0  0  0  0  0  0  0
    5.2291   -0.6739   17.6455 N   0  0  0  0  0  0  0  0  0  0  0  0
    4.1788    0.1009   17.7926 C   0  0  0  0  0  0  0  0  0  0  0  0
    3.8544    0.7872   18.9978 C   0  0  0  0  0  0  0  0  0  0  0  0
    2.6676    1.5565   19.1265 C   0  0  0  0  0  0  0  0  0  0  0  0
    2.3386    2.1456   20.3162 C   0  0  0  0  0  0  0  0  0  0  0  0
    3.2067    2.0286   21.4237 C   0  0  0  0  0  0  0  0  0  0  0  0
    4.3805    1.3209   21.3183 C   0  0  0  0  0  0  0  0  0  0  0  0
    4.7393    0.6791   20.0942 C   0  0  0  0  0  0  0  0  0  0  0  0
    7.7274    0.9699   21.0912 C   0  0  0  0  0  0  0  0  0  0  0  0
    7.6737    1.9785   20.4214 O   0  0  0  0  0  0  0  0  0  0  0  0
    8.5869    0.7073   22.3538 C   0  0  1  0  0  0  0  0  0  0  0  0
    7.9017    1.4321   23.5482 C   0  0  0  0  0  0  0  0  0  0  0  0
    7.9485    2.8748   23.3952 N   0  0  0  0  0  0  0  0  0  0  0  0
    6.8309    3.7339   23.7528 C   0  0  0  0  0  0  0  0  0  0  0  0
    6.2786    4.4166   22.5006 C   0  0  0  0  0  0  0  0  0  0  0  0
    5.0023    5.1255   22.7577 N   0  0  0  0  0  0  0  0  0  0  0  0
    4.3689    5.5708   21.4739 C   0  0  0  0  0  0  0  0  0  0  0  0
    3.0737    6.3089   21.7563 C   0  0  0  0  0  0  0  0  0  0  0  0
    3.2776    7.4258   22.5998 O   0  0  0  0  0  0  0  0  0  0  0  0
    3.8124    7.0190   23.8435 C   0  0  0  0  0  0  0  0  0  0  0  0
    5.1450    6.3027   23.6904 C   0  0  0  0  0  0  0  0  0  0  0  0
    9.0937    3.5190   23.0258 C   0  0  0  0  0  0  0  0  0  0  0  0
    9.2508    4.7236   23.1833 O   0  0  0  0  0  0  0  0  0  0  0  0
   10.1696    2.6766   22.4334 C   0  0  0  0  0  0  0  0  0  0  0  0
   11.3841    3.3052   22.1561 C   0  0  0  0  0  0  0  0  0  0  0  0
   12.4939    2.5531   21.8550 C   0  0  0  0  0  0  0  0  0  0  0  0
   12.3642    1.1662   21.8096 C   0  0  0  0  0  0  0  0  0  0  0  0
   13.7717    0.1878   21.5249 Cl  0  0  0  0  0  0  0  0  0  0  0  0
   11.1356    0.5436   21.9658 C   0  0  0  0  0  0  0  0  0  0  0  0
    9.9918    1.2982   22.2480 C   0  0  0  0  0  0  0  0  0  0  0  0
  2  1  1  1
  2  3  1  0
  3  4  1  0
  4  5  1  0
  5  6  2  0
  6  7  1  0
  7  8  2  0
  8  9  1  0
  9 10  2  0
 10 11  1  0
 11 12  2  0
 12 13  1  0
 13 14  2  0
  4 15  1  0
 15 16  2  0
 15 17  1  0
 17 18  1  1
 18 19  1  0
 19 20  1  0
 20 21  1  0
 21 22  1  0
 22 23  1  0
 23 24  1  0
 24 25  1  0
 25 26  1  0
 26 27  1  0
 19 28  1  0
 28 29  2  0
 28 30  1  0
 30 31  2  0
 31 32  1  0
 32 33  2  0
 33 34  1  0
 33 35  1  0
 35 36  2  0
 17  2  1  0
 27 22  1  0
 36 30  1  0
 14  5  1  0
 36 17  1  0
 14  9  1  0
M  CHG  1  22   1
M  END
$$$$

     RDKit          3D

 34 39  0  0  0  0  0  0  0  0999 V2000
   13.3041   -2.9847   23.8066 C   0  0  0  0  0  0  0  0  0  0  0  0
   13.0501   -1.6038   24.1416 N   0  0  0  0  0  0  0  0  0  0  0  0
   12.4665   -0.8364   23.1855 C   0  0  0  0  0  0  0  0  0  0  0  0
   12.2964   -1.2168   22.0387 O   0  0  0  0  0  0  0  0  0  0  0  0
   11.9942    0.5298   23.6518 C   0  0  0  0  0  0  0  0  0  0  0  0
   10.5766    0.4759   23.9223 N   0  0  0  0  0  0  0  0  0  0  0  0
   10.1055    0.0261   25.1442 C   0  0  0  0  0  0  0  0  0  0  0  0
   10.8002   -0.5467   25.9689 O   0  0  0  0  0  0  0  0  0  0  0  0
    8.6803    0.4828   25.2282 C   0  0  0  0  0  0  0  0  0  0  0  0
    7.8116    0.4367   26.2922 C   0  0  0  0  0  0  0  0  0  0  0  0
    6.5784    1.1256   26.1914 C   0  0  0  0  0  0  0  0  0  0  0  0
    6.3056    1.9268   25.1130 C   0  0  0  0  0  0  0  0  0  0  0  0
    4.7986    2.7783   25.0151 Cl  0  0  0  0  0  0  0  0  0  0  0  0
    7.3113    2.2432   24.0713 C   0  0  0  0  0  0  0  0  0  0  0  0
    8.3233    1.1179   23.9646 C   0  0  1  0  0  0  0  0  0  0  0  0
    9.5744    1.1220   23.1381 C   0  0  2  0  0  0  0  0  0  0  0  0
    8.4167    0.3058   22.6365 C   0  0  2  0  0  0  0  0  0  0  0  0
    7.6873    0.7745   21.3901 C   0  0  0  0  0  0  0  0  0  0  0  0
    7.7325    1.8528   20.8367 O   0  0  0  0  0  0  0  0  0  0  0  0
    6.8850   -0.2748   20.9720 N   0  0  0  0  0  0  0  0  0  0  0  0
    5.9094   -0.1403   19.9542 C   0  0  0  0  0  0  0  0  0  0  0  0
    6.0768   -0.7949   18.7602 C   0  0  0  0  0  0  0  0  0  0  0  0
    5.2547   -0.6637   17.6933 N   0  0  0  0  0  0  0  0  0  0  0  0
    4.1954    0.0982   17.8428 C   0  0  0  0  0  0  0  0  0  0  0  0
    3.8560    0.7668   19.0543 C   0  0  0  0  0  0  0  0  0  0  0  0
    2.6673    1.5359   19.1843 C   0  0  0  0  0  0  0  0  0  0  0  0
    2.3437    2.1291   20.3744 C   0  0  0  0  0  0  0  0  0  0  0  0
    3.2057    1.9987   21.4891 C   0  0  0  0  0  0  0  0  0  0  0  0
    4.3653    1.2691   21.3868 C   0  0  0  0  0  0  0  0  0  0  0  0
    4.7272    0.6433   20.1583 C   0  0  0  0  0  0  0  0  0  0  0  0
    7.1818   -1.5332   21.6310 C   0  0  0  0  0  0  0  0  0  0  0  0
    8.3319   -1.1704   22.5449 C   0  0  0  0  0  0  0  0  0  0  0  0
    9.0916   -2.0997   23.1176 C   0  0  0  0  0  0  0  0  0  0  0  0
    8.8168   -3.4065   22.9529 F   0  0  0  0  0  0  0  0  0  0  0  0
  1  2  1  0
  2  3  1  0
  3  4  2  0
  3  5  1  0
  5  6  1  0
  6  7  1  0
  7  8  2  0
  7  9  1  0
  9 10  2  0
 10 11  1  0
 11 12  2  0
 12 13  1  0
 12 14  1  0
 15 14  1  1
 15 16  1  0
 16 17  1  0
 17 18  1  6
 18 19  2  0
 18 20  1  0
 20 21  1  0
 21 22  2  0
 22 23  1  0
 23 24  2  0
 24 25  1  0
 25 26  2  0
 26 27  1  0
 27 28  2  0
 28 29  1  0
 29 30  2  0
 20 31  1  0
 31 32  1  0
 32 33  2  0
 33 34  1  0
 16  6  1  1
 32 17  1  0
 15  9  1  0
 30 21  1  0
 17 15  1  0
 30 25  1  0
M  END
>  <cnnaffinities>  (133) 
[5.9545]

>  <score>  (133) 
5.9545

>  <index>  (133) 
65

>  <Smiles>  (133) 
C(N(C(=O)C(N1C(=O)C2=C(C(=C(Cl)C([C@]32[C@@]1([C@@]13C(=O)N(c2c(nc(c3c(c(c(c(c23)[H])[H])[H])[H])[H])[H])C(/C/1=C(\F)/[H])([H])[H])[H])([H])[H])[H])[H])([H])[H])[H])([H])([H])[H]

>  <h>  (133) 
<NA>

>  <Training>  (133) 
True

>  <Success>  (133) 
True

>  <enamine_searched>  (133) 
False

>  <enamine_id>  (133) 
nan

$$$$

     RDKit          3D

 35 40  0  0  0  0  0  0  0  0999 V2000
   -4.7312    4.5315  -23.2356 C   0  0  0  0  0  0  0  0  0  0  0  0
   -5.9105    3.6534  -23.5443 C   0  0  0  0  0  0  0  0  0  0  0  0
   -6.0727    2.7785  -24.6585 C   0  0  0  0  0  0  0  0  0  0  0  0
   -7.3030    2.2270  -24.4602 C   0  0  0  0  0  0  0  0  0  0  0  0
   -8.1467    1.3313  -25.3258 C   0  0  0  0  0  0  0  0  0  0  0  0
   -8.9901    0.4317  -24.5799 N   0  0  0  0  0  0  0  0  0  0  0  0
   -8.5020   -0.9031  -24.2809 C   0  0  0  0  0  0  0  0  0  0  0  0
   -9.0717   -1.4303  -22.9340 C   0  0  2  0  0  0  0  0  0  0  0  0
   -8.4777   -0.5786  -21.7728 C   0  0  0  0  0  0  0  0  0  0  0  0
   -8.7713    0.5512  -21.4748 O   0  0  0  0  0  0  0  0  0  0  0  0
   -7.4933   -1.3231  -21.1465 N   0  0  0  0  0  0  0  0  0  0  0  0
   -6.6453   -0.8042  -20.1305 C   0  0  0  0  0  0  0  0  0  0  0  0
   -6.8584   -1.1778  -18.8239 C   0  0  0  0  0  0  0  0  0  0  0  0
   -6.0698   -0.8202  -17.7820 N   0  0  0  0  0  0  0  0  0  0  0  0
   -5.0444   -0.0451  -18.0409 C   0  0  0  0  0  0  0  0  0  0  0  0
   -4.7250    0.4439  -19.3388 C   0  0  0  0  0  0  0  0  0  0  0  0
   -3.6541    1.3539  -19.5392 C   0  0  0  0  0  0  0  0  0  0  0  0
   -3.3516    1.7854  -20.8008 C   0  0  0  0  0  0  0  0  0  0  0  0
   -4.0873    1.3260  -21.9156 C   0  0  0  0  0  0  0  0  0  0  0  0
   -5.1572    0.4814  -21.7413 C   0  0  0  0  0  0  0  0  0  0  0  0
   -5.5216    0.0374  -20.4350 C   0  0  0  0  0  0  0  0  0  0  0  0
   -7.2142   -2.5753  -21.8209 C   0  0  0  0  0  0  0  0  0  0  0  0
   -8.5337   -2.8355  -22.5587 C   0  0  2  0  0  0  0  0  0  0  0  0
   -8.4285   -3.8413  -23.6953 C   0  0  0  0  0  0  0  0  0  0  0  0
  -10.5844   -1.3212  -23.0487 C   0  0  0  0  0  0  0  0  0  0  0  0
  -11.4869   -2.3000  -22.6069 C   0  0  0  0  0  0  0  0  0  0  0  0
  -12.8395   -2.0097  -22.6022 C   0  0  0  0  0  0  0  0  0  0  0  0
  -13.6926   -2.9226  -22.1077 F   0  0  0  0  0  0  0  0  0  0  0  0
  -13.3735   -0.8133  -23.0646 C   0  0  0  0  0  0  0  0  0  0  0  0
  -12.4932    0.1155  -23.5734 C   0  0  0  0  0  0  0  0  0  0  0  0
  -11.1244   -0.1497  -23.5979 C   0  0  0  0  0  0  0  0  0  0  0  0
  -10.2406    0.8664  -24.2435 C   0  0  0  0  0  0  0  0  0  0  0  0
  -10.6203    2.0100  -24.4583 O   0  0  0  0  0  0  0  0  0  0  0  0
   -7.8310    2.6986  -23.3274 O   0  0  0  0  0  0  0  0  0  0  0  0
   -6.9618    3.6013  -22.7536 N   0  0  0  0  0  0  0  0  0  0  0  0
  1  2  1  0
  2  3  1  0
  3  4  2  0
  4  5  1  0
  5  6  1  0
  6  7  1  0
  8  7  1  6
  8  9  1  0
  9 10  2  0
  9 11  1  0
 11 12  1  0
 12 13  2  0
 13 14  1  0
 14 15  2  0
 15 16  1  0
 16 17  2  0
 17 18  1  0
 18 19  2  0
 19 20  1  0
 20 21  2  0
 11 22  1  0
 22 23  1  0
 23 24  1  6
  8 25  1  0
 25 26  2  0
 26 27  1  0
 27 28  1  0
 27 29  2  0
 29 30  1  0
 30 31  2  0
 31 32  1  0
 32 33  2  0
  4 34  1  0
 34 35  1  0
 35  2  2  0
 32  6  1  0
 23  8  1  0
 31 25  1  0
 21 12  1  0
 21 16  1  0
M  END
$$$$

     RDKit          3D

 25 28  0  0  0  0  0  0  0  0999 V2000
    5.2512   -2.0429   21.7441 O   0  0  0  0  0  0  0  0  0  0  0  0
    6.3777   -1.5885   21.8739 C   0  0  0  0  0  0  0  0  0  0  0  0
    6.8549   -0.3838   21.0611 C   0  0  0  0  0  0  0  0  0  0  0  0
    5.9220   -0.1236   19.9375 C   0  0  0  0  0  0  0  0  0  0  0  0
    6.1514   -0.7159   18.7270 C   0  0  0  0  0  0  0  0  0  0  0  0
    5.3549   -0.5890   17.6374 N   0  0  0  0  0  0  0  0  0  0  0  0
    4.2764    0.1445   17.7907 C   0  0  0  0  0  0  0  0  0  0  0  0
    3.9017    0.7920   19.0032 C   0  0  0  0  0  0  0  0  0  0  0  0
    2.7325    1.5853   19.1245 C   0  0  0  0  0  0  0  0  0  0  0  0
    2.3971    2.1567   20.3218 C   0  0  0  0  0  0  0  0  0  0  0  0
    3.2124    1.9662   21.4623 C   0  0  0  0  0  0  0  0  0  0  0  0
    4.3598    1.2192   21.3710 C   0  0  0  0  0  0  0  0  0  0  0  0
    4.7384    0.6325   20.1311 C   0  0  0  0  0  0  0  0  0  0  0  0
    7.2942   -2.1353   22.7220 N   0  0  0  0  0  0  0  0  0  0  0  0
    7.1437   -3.5368   23.0948 C   0  0  0  0  0  0  0  0  0  0  0  0
    7.5342   -3.7533   24.5547 C   0  0  0  0  0  0  0  0  0  0  0  0
    8.8796   -3.1140   24.9284 C   0  0  1  0  0  0  0  0  0  0  0  0
   10.0521   -3.8900   24.3256 C   0  0  0  0  0  0  0  0  0  0  0  0
   11.4131   -3.2749   24.6252 C   0  0  0  0  0  0  0  0  0  0  0  0
   11.4700   -1.8020   24.2848 C   0  0  0  0  0  0  0  0  0  0  0  0
   11.5337   -1.6940   22.9079 F   0  0  0  0  0  0  0  0  0  0  0  0
   12.6394   -1.2553   24.7423 F   0  0  0  0  0  0  0  0  0  0  0  0
   10.2882   -0.9983   24.8100 C   0  0  0  0  0  0  0  0  0  0  0  0
    8.9347   -1.6463   24.4666 C   0  0  1  0  0  0  0  0  0  0  0  0
    8.6083   -1.5655   22.9711 C   0  0  0  0  0  0  0  0  0  0  0  0
  1  2  2  0
  2  3  1  0
  3  4  1  0
  4  5  2  0
  5  6  1  0
  6  7  2  0
  7  8  1  0
  8  9  2  0
  9 10  1  0
 10 11  2  0
 11 12  1  0
 12 13  2  0
  2 14  1  0
 14 15  1  0
 15 16  1  0
 17 16  1  6
 17 18  1  0
 18 19  1  0
 19 20  1  0
 20 21  1  0
 20 22  1  0
 20 23  1  0
 24 23  1  6
 24 25  1  0
 13  4  1  0
 25 14  1  0
 13  8  1  0
 24 17  1  0
M  END
$$$$

     RDKit          3D

 38 43  0  0  0  0  0  0  0  0999 V2000
    6.6044    4.1383   27.3027 C   0  0  0  0  0  0  0  0  0  0  0  0
    6.7093    3.5736   25.9568 N   0  0  0  0  0  0  0  0  0  0  0  0
    6.7983    4.5621   24.8432 C   0  0  0  0  0  0  0  0  0  0  0  0
    6.8385    3.8290   23.5012 C   0  0  0  0  0  0  0  0  0  0  0  0
    7.9775    2.9252   23.3344 N   0  0  0  0  0  0  0  0  0  0  0  0
    7.8473    1.4901   23.5315 C   0  0  0  0  0  0  0  0  0  0  0  0
    8.5301    0.6779   22.3930 C   0  0  2  0  0  0  0  0  0  0  0  0
    7.7365    0.9643   21.0933 C   0  0  0  0  0  0  0  0  0  0  0  0
    7.7393    1.9757   20.4274 O   0  0  0  0  0  0  0  0  0  0  0  0
    6.9380   -0.1302   20.8160 N   0  0  0  0  0  0  0  0  0  0  0  0
    5.9170   -0.0700   19.8386 C   0  0  0  0  0  0  0  0  0  0  0  0
    6.0645   -0.7476   18.6562 C   0  0  0  0  0  0  0  0  0  0  0  0
    5.2208   -0.6434   17.6040 N   0  0  0  0  0  0  0  0  0  0  0  0
    4.1709    0.1307   17.7494 C   0  0  0  0  0  0  0  0  0  0  0  0
    3.8482    0.8176   18.9539 C   0  0  0  0  0  0  0  0  0  0  0  0
    2.6750    1.6078   19.0796 C   0  0  0  0  0  0  0  0  0  0  0  0
    2.3383    2.1669   20.2808 C   0  0  0  0  0  0  0  0  0  0  0  0
    3.1674    1.9794   21.4081 C   0  0  0  0  0  0  0  0  0  0  0  0
    4.3334    1.2625   21.3007 C   0  0  0  0  0  0  0  0  0  0  0  0
    4.7172    0.6833   20.0566 C   0  0  0  0  0  0  0  0  0  0  0  0
    7.1003   -1.2438   21.7280 C   0  0  0  0  0  0  0  0  0  0  0  0
    8.3595   -0.8565   22.5170 C   0  0  2  0  0  0  0  0  0  0  0  0
    8.4001   -1.4234   23.9238 C   0  0  0  0  0  0  0  0  0  0  0  0
    9.5873   -0.9672   24.5491 O   0  0  0  0  0  0  0  0  0  0  0  0
    9.8730   -1.6186   25.7642 C   0  0  0  0  0  0  0  0  0  0  0  0
   10.7640   -2.8111   25.5544 C   0  0  0  0  0  0  0  0  0  0  0  0
   10.1220   -3.8166   24.8561 F   0  0  0  0  0  0  0  0  0  0  0  0
   11.7190   -3.2516   26.5985 C   0  0  0  0  0  0  0  0  0  0  0  0
   12.2216   -2.6781   25.2894 C   0  0  0  0  0  0  0  0  0  0  0  0
    9.9820    1.1399   22.3692 C   0  0  0  0  0  0  0  0  0  0  0  0
   11.0833    0.2795   22.2097 C   0  0  0  0  0  0  0  0  0  0  0  0
   12.3636    0.7980   22.1604 C   0  0  0  0  0  0  0  0  0  0  0  0
   13.7209   -0.2816   21.9603 Cl  0  0  0  0  0  0  0  0  0  0  0  0
   12.6083    2.1680   22.2422 C   0  0  0  0  0  0  0  0  0  0  0  0
   11.5340    3.0169   22.3857 C   0  0  0  0  0  0  0  0  0  0  0  0
   10.2416    2.5150   22.5158 C   0  0  0  0  0  0  0  0  0  0  0  0
    9.1600    3.4796   22.9303 C   0  0  0  0  0  0  0  0  0  0  0  0
    9.3337    4.6954   22.9212 O   0  0  0  0  0  0  0  0  0  0  0  0
  1  2  1  0
  2  3  1  0
  3  4  1  0
  4  5  1  0
  5  6  1  0
  7  6  1  1
  7  8  1  0
  8  9  2  0
  8 10  1  0
 10 11  1  0
 11 12  2  0
 12 13  1  0
 13 14  2  0
 14 15  1  0
 15 16  2  0
 16 17  1  0
 17 18  2  0
 18 19  1  0
 19 20  2  0
 10 21  1  0
 21 22  1  0
 22 23  1  1
 23 24  1  0
 24 25  1  0
 25 26  1  0
 26 27  1  0
 26 28  1  0
 28 29  1  0
  7 30  1  0
 30 31  2  0
 31 32  1  0
 32 33  1  0
 32 34  2  0
 34 35  1  0
 35 36  2  0
 36 37  1  0
 37 38  2  0
 37  5  1  0
 22  7  1  0
 29 26  1  0
 36 30  1  0
 20 11  1  0
 20 15  1  0
M  CHG  1   2   1
M  END
$$$$

     RDKit          3D

 34 39  0  0  0  0  0  0  0  0999 V2000
   -7.9836    0.8543  -21.6132 O   0  0  0  0  0  0  0  0  0  0  0  0
   -8.0194   -0.3050  -21.9764 C   0  0  0  0  0  0  0  0  0  0  0  0
   -7.4327   -1.4416  -21.1361 C   0  0  0  0  0  0  0  0  0  0  0  0
   -6.5774   -0.8888  -20.0574 C   0  0  0  0  0  0  0  0  0  0  0  0
   -6.9089   -1.0689  -18.7425 C   0  0  0  0  0  0  0  0  0  0  0  0
   -6.2437   -0.5367  -17.6903 N   0  0  0  0  0  0  0  0  0  0  0  0
   -5.2025    0.2167  -17.9808 C   0  0  0  0  0  0  0  0  0  0  0  0
   -4.7525    0.4887  -19.3039 C   0  0  0  0  0  0  0  0  0  0  0  0
   -3.6500    1.3386  -19.5644 C   0  0  0  0  0  0  0  0  0  0  0  0
   -3.2622    1.6154  -20.8478 C   0  0  0  0  0  0  0  0  0  0  0  0
   -3.9637    1.0513  -21.9349 C   0  0  0  0  0  0  0  0  0  0  0  0
   -5.0330    0.2221  -21.7097 C   0  0  0  0  0  0  0  0  0  0  0  0
   -5.4581   -0.0752  -20.3824 C   0  0  0  0  0  0  0  0  0  0  0  0
   -8.5263   -0.6796  -23.2005 N   0  0  0  0  0  0  0  0  0  0  0  0
   -8.5687    0.3608  -24.2262 C   0  0  0  0  0  0  0  0  0  0  0  0
   -7.8600   -0.0722  -25.4850 C   0  0  0  0  0  0  0  0  0  0  0  0
   -6.6890   -0.8246  -25.4512 C   0  0  0  0  0  0  0  0  0  0  0  0
   -6.0985   -1.2526  -26.6334 C   0  0  0  0  0  0  0  0  0  0  0  0
   -6.6525   -0.9244  -27.8637 C   0  0  0  0  0  0  0  0  0  0  0  0
   -7.8157   -0.1713  -27.8890 C   0  0  0  0  0  0  0  0  0  0  0  0
   -8.4931    0.2796  -29.4243 Cl  0  0  0  0  0  0  0  0  0  0  0  0
   -8.4329    0.2325  -26.7113 C   0  0  0  0  0  0  0  0  0  0  0  0
   -9.3121   -1.8994  -23.3705 C   0  0  2  0  0  0  0  0  0  0  0  0
   -8.5936   -3.2746  -23.4930 C   0  0  0  0  0  0  0  0  0  0  0  0
   -9.6596   -4.1772  -24.1767 C   0  0  0  0  0  0  0  0  0  0  0  0
  -10.8634   -3.2528  -24.2742 C   0  0  2  0  0  0  0  0  0  0  0  0
  -10.2136   -1.9328  -24.6180 C   0  0  0  0  0  0  0  0  0  0  0  0
  -11.3478   -3.0463  -22.8266 N   0  0  2  0  0  0  0  0  0  0  0  0
  -12.7445   -2.6238  -22.5704 C   0  0  0  0  0  0  0  0  0  0  0  0
  -13.2757   -1.5804  -23.5345 C   0  0  0  0  0  0  0  0  0  0  0  0
  -14.7784   -1.4404  -23.4242 C   0  0  0  0  0  0  0  0  0  0  0  0
  -14.6625   -0.2483  -22.6310 O   0  0  0  0  0  0  0  0  0  0  0  0
  -13.3051   -0.1110  -23.0892 C   0  0  0  0  0  0  0  0  0  0  0  0
  -10.3573   -2.0779  -22.2544 C   0  0  0  0  0  0  0  0  0  0  0  0
  1  2  2  0
  2  3  1  0
  3  4  1  0
  4  5  2  0
  5  6  1  0
  6  7  2  0
  7  8  1  0
  8  9  2  0
  9 10  1  0
 10 11  2  0
 11 12  1  0
 12 13  2  0
  2 14  1  0
 14 15  1  0
 15 16  1  0
 16 17  2  0
 17 18  1  0
 18 19  2  0
 19 20  1  0
 20 21  1  0
 20 22  2  0
 23 14  1  1
 23 24  1  0
 24 25  1  0
 26 25  1  1
 26 27  1  0
 26 28  1  0
 28 29  1  6
 29 30  1  0
 30 31  1  0
 31 32  1  0
 32 33  1  0
 28 34  1  0
 13  4  1  0
 22 16  1  0
 27 23  1  0
 33 30  1  0
 13  8  1  0
 34 23  1  0
M  CHG  1  28   1
M  END
>  <cnnaffinities>  (137) 
[6.05603, 5.97339, 6.02527, 6.0841]

>  <score>  (137) 
6.05603

>  <index>  (137) 
8

>  <Smiles>  (137) 
O=C(C(c1c(nc(c2c(c(c(c(c12)[H])[H])[H])[H])[H])[H])([H])[H])N(C(c1c(c(c(c(Cl)c1[H])[H])[H])[H])([H])[H])[C@]12C(C([C@](C1([H])[H])([N@+](C(C1(C(OC1([H])[H])([H])[H])[H])([H])[H])(C2([H])[H])[H])[H])([H])[H])([H])[H]

>  <h>  (137) 
<NA>

>  <Training>  (137) 
True

>  <Success>  (137) 
True

>  <enamine_searched>  (137) 
False

>  <enamine_id>  (137) 
nan

$$$$

     RDKit          3D

 35 40  0  0  0  0  0  0  0  0999 V2000
    4.7914    4.8847   20.4961 C   0  0  0  0  0  0  0  0  0  0  0  0
    5.9397    4.7418   21.4376 C   0  0  0  0  0  0  0  0  0  0  0  0
    6.1538    3.9567   22.4564 N   0  0  0  0  0  0  0  0  0  0  0  0
    7.3922    4.3770   22.8948 C   0  0  0  0  0  0  0  0  0  0  0  0
    8.1060    3.7562   24.0615 C   0  0  0  0  0  0  0  0  0  0  0  0
    8.8364    2.5701   23.6524 N   0  0  0  0  0  0  0  0  0  0  0  0
    8.2464    1.2574   23.8274 C   0  0  0  0  0  0  0  0  0  0  0  0
    8.4672    0.3214   22.6111 C   0  0  2  0  0  0  0  0  0  0  0  0
    7.6424    0.7605   21.3851 C   0  0  0  0  0  0  0  0  0  0  0  0
    7.7011    1.8208   20.8051 O   0  0  0  0  0  0  0  0  0  0  0  0
    6.8106   -0.2795   21.0274 N   0  0  0  0  0  0  0  0  0  0  0  0
    5.8791   -0.1479   19.9765 C   0  0  0  0  0  0  0  0  0  0  0  0
    6.0765   -0.7857   18.7797 C   0  0  0  0  0  0  0  0  0  0  0  0
    5.2709   -0.6504   17.6989 N   0  0  0  0  0  0  0  0  0  0  0  0
    4.2108    0.1141   17.8345 C   0  0  0  0  0  0  0  0  0  0  0  0
    3.8606    0.7854   19.0414 C   0  0  0  0  0  0  0  0  0  0  0  0
    2.6850    1.5715   19.1592 C   0  0  0  0  0  0  0  0  0  0  0  0
    2.3446    2.1491   20.3511 C   0  0  0  0  0  0  0  0  0  0  0  0
    3.1913    2.0168   21.4715 C   0  0  0  0  0  0  0  0  0  0  0  0
    4.3527    1.2930   21.3792 C   0  0  0  0  0  0  0  0  0  0  0  0
    4.7134    0.6529   20.1599 C   0  0  0  0  0  0  0  0  0  0  0  0
    7.1829   -1.5444   21.6135 C   0  0  0  0  0  0  0  0  0  0  0  0
    7.9690   -1.1417   22.8788 C   0  0  2  0  0  0  0  0  0  0  0  0
    7.1567   -1.3708   24.1570 C   0  0  0  0  0  0  0  0  0  0  0  0
    9.9492    0.3932   22.2538 C   0  0  0  0  0  0  0  0  0  0  0  0
   10.6050   -0.6970   21.6707 C   0  0  0  0  0  0  0  0  0  0  0  0
   11.9790   -0.6621   21.5217 C   0  0  0  0  0  0  0  0  0  0  0  0
   12.6040   -1.7916   21.1519 F   0  0  0  0  0  0  0  0  0  0  0  0
   12.7393    0.4807   21.7545 C   0  0  0  0  0  0  0  0  0  0  0  0
   12.0685    1.5940   22.2234 C   0  0  0  0  0  0  0  0  0  0  0  0
   10.7011    1.5469   22.4923 C   0  0  0  0  0  0  0  0  0  0  0  0
   10.0782    2.7547   23.1061 C   0  0  0  0  0  0  0  0  0  0  0  0
   10.6726    3.8202   23.1632 O   0  0  0  0  0  0  0  0  0  0  0  0
    7.8972    5.3610   22.2129 N   0  0  0  0  0  0  0  0  0  0  0  0
    6.9493    5.6057   21.2383 O   0  0  0  0  0  0  0  0  0  0  0  0
  1  2  1  0
  2  3  2  0
  3  4  1  0
  4  5  1  0
  5  6  1  0
  6  7  1  0
  8  7  1  1
  8  9  1  0
  9 10  2  0
  9 11  1  0
 11 12  1  0
 12 13  2  0
 13 14  1  0
 14 15  2  0
 15 16  1  0
 16 17  2  0
 17 18  1  0
 18 19  2  0
 19 20  1  0
 20 21  2  0
 11 22  1  0
 22 23  1  0
 23 24  1  1
  8 25  1  0
 25 26  2  0
 26 27  1  0
 27 28  1  0
 27 29  2  0
 29 30  1  0
 30 31  2  0
 31 32  1  0
 32 33  2  0
  4 34  2  0
 34 35  1  0
 35  2  1  0
 32  6  1  0
 23  8  1  0
 31 25  1  0
 21 12  1  0
 21 16  1  0
M  END
>  <cnnaffinities>  (138) 
[6.17938, 6.15326, 6.1755, 6.15245, 6.21956]

>  <score>  (138) 
6.17938

>  <index>  (138) 
68

>  <Smiles>  (138) 
C(c1nc(C(N2C([C@@]3(C(=O)N(c4c(nc(c5c(c(c(c(c45)[H])[H])[H])[H])[H])[H])C([C@@]3(C([H])([H])[H])[H])([H])[H])c3c(c(F)c(c(c3C2=O)[H])[H])[H])([H])[H])([H])[H])no1)([H])([H])[H]

>  <h>  (138) 
<NA>

>  <Training>  (138) 
True

>  <Success>  (138) 
True

>  <enamine_searched>  (138) 
False

>  <enamine_id>  (138) 
nan

$$$$

     RDKit          3D

 36 40  0  0  0  0  0  0  0  0999 V2000
   -9.9541   -6.3859  -28.1253 C   0  0  0  0  0  0  0  0  0  0  0  0
  -10.3143   -5.3795  -27.3393 C   0  0  0  0  0  0  0  0  0  0  0  0
   -9.3276   -4.7025  -26.4723 C   0  0  0  0  0  0  0  0  0  0  0  0
   -8.1396   -4.9627  -26.4799 O   0  0  0  0  0  0  0  0  0  0  0  0
   -9.8661   -3.6845  -25.6732 N   0  0  0  0  0  0  0  0  0  0  0  0
  -11.0126   -4.0136  -24.8299 C   0  0  0  0  0  0  0  0  0  0  0  0
  -11.5029   -2.8127  -24.0493 C   0  0  0  0  0  0  0  0  0  0  0  0
  -10.3427   -2.1846  -23.3009 C   0  0  0  0  0  0  0  0  0  0  0  0
   -9.2577   -1.7871  -24.2780 C   0  0  0  0  0  0  0  0  0  0  0  0
   -9.0602   -2.5598  -25.4356 C   0  0  0  0  0  0  0  0  0  0  0  0
   -8.1128   -2.1780  -26.3972 C   0  0  0  0  0  0  0  0  0  0  0  0
   -7.3296   -1.0570  -26.2052 C   0  0  0  0  0  0  0  0  0  0  0  0
   -7.4798   -0.3121  -25.0448 C   0  0  0  0  0  0  0  0  0  0  0  0
   -8.4367   -0.6834  -24.1105 C   0  0  0  0  0  0  0  0  0  0  0  0
   -8.5755    0.2624  -22.8869 N   0  0  1  0  0  0  0  0  0  0  0  0
   -9.7134    1.3256  -23.0485 C   0  0  0  0  0  0  0  0  0  0  0  0
   -9.4324    2.2157  -24.2221 C   0  0  0  0  0  0  0  0  0  0  0  0
   -8.5738    3.2993  -24.0459 C   0  0  0  0  0  0  0  0  0  0  0  0
   -8.2862    4.1527  -25.1018 C   0  0  0  0  0  0  0  0  0  0  0  0
   -8.8046    3.9174  -26.3663 C   0  0  0  0  0  0  0  0  0  0  0  0
   -9.6181    2.8109  -26.5447 C   0  0  0  0  0  0  0  0  0  0  0  0
  -10.1218    2.4396  -28.1600 Cl  0  0  0  0  0  0  0  0  0  0  0  0
   -9.9742    1.9823  -25.4887 C   0  0  0  0  0  0  0  0  0  0  0  0
   -8.5754   -0.3306  -21.5594 C   0  0  0  0  0  0  0  0  0  0  0  0
   -9.4192   -0.0126  -20.7604 O   0  0  0  0  0  0  0  0  0  0  0  0
   -7.4642   -1.3382  -21.2567 C   0  0  0  0  0  0  0  0  0  0  0  0
   -6.5673   -0.8176  -20.1590 C   0  0  0  0  0  0  0  0  0  0  0  0
   -6.8815   -1.0377  -18.8417 C   0  0  0  0  0  0  0  0  0  0  0  0
   -6.1950   -0.5481  -17.7744 N   0  0  0  0  0  0  0  0  0  0  0  0
   -5.1573    0.2103  -18.0454 C   0  0  0  0  0  0  0  0  0  0  0  0
   -4.7131    0.5232  -19.3610 C   0  0  0  0  0  0  0  0  0  0  0  0
   -3.5976    1.3658  -19.6026 C   0  0  0  0  0  0  0  0  0  0  0  0
   -3.2092    1.6597  -20.8811 C   0  0  0  0  0  0  0  0  0  0  0  0
   -3.9144    1.1160  -21.9789 C   0  0  0  0  0  0  0  0  0  0  0  0
   -4.9964    0.2953  -21.7723 C   0  0  0  0  0  0  0  0  0  0  0  0
   -5.4322   -0.0112  -20.4554 C   0  0  0  0  0  0  0  0  0  0  0  0
  1  2  2  0
  2  3  1  0
  3  4  2  0
  3  5  1  0
  5  6  1  0
  6  7  1  0
  7  8  1  0
  8  9  1  0
  9 10  2  0
 10 11  1  0
 11 12  2  0
 12 13  1  0
 13 14  2  0
 14 15  1  0
 15 16  1  6
 16 17  1  0
 17 18  2  0
 18 19  1  0
 19 20  2  0
 20 21  1  0
 21 22  1  0
 21 23  2  0
 15 24  1  0
 24 25  2  0
 24 26  1  0
 26 27  1  0
 27 28  2  0
 28 29  1  0
 29 30  2  0
 30 31  1  0
 31 32  2  0
 32 33  1  0
 33 34  2  0
 34 35  1  0
 35 36  2  0
 10  5  1  0
 23 17  1  0
 36 27  1  0
 14  9  1  0
 36 31  1  0
M  CHG  1  15   1
M  END
>  <cnnaffinities>  (139) 
[6.03533, 6.10419, 6.01301, 6.20718]

>  <score>  (139) 
6.03533

>  <index>  (139) 
69

>  <Smiles>  (139) 
C(=C(C(=O)N1C(C(C(c2c1c(c(c(c2[N@@+](C(c1c(c(c(c(Cl)c1[H])[H])[H])[H])([H])[H])(C(=O)C(c1c(nc(c2c(c(c(c(c12)[H])[H])[H])[H])[H])[H])([H])[H])[H])[H])[H])[H])([H])[H])([H])[H])([H])[H])[H])([H])[H]

>  <h>  (139) 
<NA>

>  <Training>  (139) 
True

>  <Success>  (139) 
True

>  <enamine_searched>  (139) 
False

>  <enamine_id>  (139) 
nan

$$$$

     RDKit          3D

 24 26  0  0  0  0  0  0  0  0999 V2000
   -8.1385   -7.3289  -29.4003 C   0  0  0  0  0  0  0  0  0  0  0  0
   -7.2551   -6.8707  -28.2325 C   0  0  0  0  0  0  0  0  0  0  0  0
   -5.7871   -7.1354  -28.5773 C   0  0  0  0  0  0  0  0  0  0  0  0
   -7.3899   -5.3695  -27.9341 C   0  0  0  0  0  0  0  0  0  0  0  0
   -8.7638   -4.8895  -27.4219 C   0  0  0  0  0  0  0  0  0  0  0  0
   -9.8701   -5.1864  -28.4461 C   0  0  0  0  0  0  0  0  0  0  0  0
   -9.1200   -5.5461  -26.0794 C   0  0  0  0  0  0  0  0  0  0  0  0
   -8.0760   -5.2210  -25.0047 C   0  0  0  0  0  0  0  0  0  0  0  0
   -7.8288   -3.7772  -24.9091 N   0  0  0  0  0  0  0  0  0  0  0  0
   -7.6151   -3.2132  -23.6535 C   0  0  0  0  0  0  0  0  0  0  0  0
   -7.1790   -3.9294  -22.7601 O   0  0  0  0  0  0  0  0  0  0  0  0
   -8.4657   -2.0236  -23.1914 C   0  0  0  0  0  0  0  0  0  0  0  0
   -9.8819   -2.5066  -22.8296 C   0  0  0  0  0  0  0  0  0  0  0  0
  -10.1293   -3.8532  -22.4860 C   0  0  0  0  0  0  0  0  0  0  0  0
  -11.3563   -4.3767  -22.3284 N   0  0  0  0  0  0  0  0  0  0  0  0
  -12.4025   -3.5552  -22.4789 C   0  0  0  0  0  0  0  0  0  0  0  0
  -12.2713   -2.1885  -22.7343 C   0  0  0  0  0  0  0  0  0  0  0  0
  -13.3953   -1.3516  -22.8213 C   0  0  0  0  0  0  0  0  0  0  0  0
  -13.2287    0.0140  -23.0409 C   0  0  0  0  0  0  0  0  0  0  0  0
  -11.9461    0.5492  -23.1805 C   0  0  0  0  0  0  0  0  0  0  0  0
  -10.8263   -0.2838  -23.1002 C   0  0  0  0  0  0  0  0  0  0  0  0
  -10.9859   -1.6494  -22.8924 C   0  0  0  0  0  0  0  0  0  0  0  0
   -7.5788   -3.0353  -26.1446 C   0  0  0  0  0  0  0  0  0  0  0  0
   -8.6682   -3.3696  -27.1747 C   0  0  0  0  0  0  0  0  0  0  0  0
  1  2  1  0
  2  3  1  0
  2  4  1  0
  4  5  1  0
  5  6  1  0
  5  7  1  0
  7  8  1  0
  8  9  1  0
  9 10  1  0
 10 11  2  0
 10 12  1  0
 12 13  1  0
 13 14  2  0
 14 15  1  0
 15 16  2  0
 16 17  1  0
 17 18  2  0
 18 19  1  0
 19 20  2  0
 20 21  1  0
 21 22  2  0
  9 23  1  0
 23 24  1  0
 24  5  1  0
 22 13  1  0
 22 17  1  0
M  END
$$$$

     RDKit          3D

 37 41  0  0  0  0  0  0  0  0999 V2000
    8.9004   -1.5126   21.0489 C   0  0  0  0  0  0  0  0  0  0  0  0
    8.1153   -0.2030   21.0022 C   0  0  0  0  0  0  0  0  0  0  0  0
    6.6229   -0.3043   21.2793 C   0  0  0  0  0  0  0  0  0  0  0  0
    6.1902   -0.4444   22.4089 O   0  0  0  0  0  0  0  0  0  0  0  0
    5.8113   -0.1794   20.1576 N   0  0  0  0  0  0  0  0  0  0  0  0
    6.2934   -0.7378   18.8981 C   0  0  0  0  0  0  0  0  0  0  0  0
    5.1215   -1.1069   18.0165 C   0  0  0  0  0  0  0  0  0  0  0  0
    4.3122    0.1548   17.7444 C   0  0  0  0  0  0  0  0  0  0  0  0
    3.8600    0.7789   19.0462 C   0  0  0  0  0  0  0  0  0  0  0  0
    2.6989    1.5442   19.1419 C   0  0  0  0  0  0  0  0  0  0  0  0
    2.3242    2.1796   20.3190 C   0  0  0  0  0  0  0  0  0  0  0  0
    3.1611    2.0821   21.4320 C   0  0  0  0  0  0  0  0  0  0  0  0
    2.8286    2.7295   22.6535 N   0  0  0  0  0  0  0  0  0  0  0  0
    2.9070    2.0259   23.9376 C   0  0  0  0  0  0  0  0  0  0  0  0
    3.9870    2.6039   24.8464 C   0  0  0  0  0  0  0  0  0  0  0  0
    3.7162    3.7506   25.5931 C   0  0  0  0  0  0  0  0  0  0  0  0
    4.7009    4.3266   26.3803 C   0  0  0  0  0  0  0  0  0  0  0  0
    5.9774    3.7820   26.4301 C   0  0  0  0  0  0  0  0  0  0  0  0
    6.2399    2.6402   25.6851 C   0  0  0  0  0  0  0  0  0  0  0  0
    7.8544    1.9753   25.6873 Cl  0  0  0  0  0  0  0  0  0  0  0  0
    5.2612    2.0397   24.9023 C   0  0  0  0  0  0  0  0  0  0  0  0
    2.3765    4.0427   22.7234 C   0  0  0  0  0  0  0  0  0  0  0  0
    1.5629    4.3882   23.5585 O   0  0  0  0  0  0  0  0  0  0  0  0
    3.0448    5.0825   21.8247 C   0  0  0  0  0  0  0  0  0  0  0  0
    4.0775    5.7870   22.6702 C   0  0  0  0  0  0  0  0  0  0  0  0
    3.6800    6.8144   23.4883 C   0  0  0  0  0  0  0  0  0  0  0  0
    4.4658    7.4519   24.3835 N   0  0  0  0  0  0  0  0  0  0  0  0
    5.7056    7.0270   24.4982 C   0  0  0  0  0  0  0  0  0  0  0  0
    6.2392    5.9556   23.7319 C   0  0  0  0  0  0  0  0  0  0  0  0
    7.5625    5.5021   23.9076 C   0  0  0  0  0  0  0  0  0  0  0  0
    8.3031    6.1312   24.8376 F   0  0  0  0  0  0  0  0  0  0  0  0
    8.0928    4.4700   23.1954 C   0  0  0  0  0  0  0  0  0  0  0  0
    7.2798    3.8579   22.2287 C   0  0  0  0  0  0  0  0  0  0  0  0
    5.9878    4.2578   22.0158 C   0  0  0  0  0  0  0  0  0  0  0  0
    5.4235    5.3164   22.7806 C   0  0  0  0  0  0  0  0  0  0  0  0
    4.3119    1.3103   21.3704 C   0  0  0  0  0  0  0  0  0  0  0  0
    4.6530    0.6287   20.1966 C   0  0  0  0  0  0  0  0  0  0  0  0
  1  2  1  0
  2  3  1  0
  3  4  2  0
  3  5  1  0
  5  6  1  0
  6  7  1  0
  7  8  1  0
  8  9  1  0
  9 10  2  0
 10 11  1  0
 11 12  2  0
 12 13  1  0
 13 14  1  0
 14 15  1  0
 15 16  2  0
 16 17  1  0
 17 18  2  0
 18 19  1  0
 19 20  1  0
 19 21  2  0
 13 22  1  0
 22 23  2  0
 22 24  1  0
 24 25  1  0
 25 26  2  0
 26 27  1  0
 27 28  2  0
 28 29  1  0
 29 30  2  0
 30 31  1  0
 30 32  1  0
 32 33  2  0
 33 34  1  0
 34 35  2  0
 12 36  1  0
 36 37  2  0
 37  5  1  0
 37  9  1  0
 21 15  1  0
 35 25  1  0
 35 29  1  0
M  END
$$$$

     RDKit          3D

 35 40  0  0  0  0  0  0  0  0999 V2000
    9.9938   -0.8048   21.8511 C   0  0  0  0  0  0  0  0  0  0  0  0
    8.7472   -0.0404   22.3264 C   0  0  1  0  0  0  0  0  0  0  0  0
    7.9861    0.5660   21.1258 C   0  0  0  0  0  0  0  0  0  0  0  0
    6.8723   -0.3319   20.9393 N   0  0  0  0  0  0  0  0  0  0  0  0
    5.9014   -0.1627   19.9253 C   0  0  0  0  0  0  0  0  0  0  0  0
    6.1077   -0.7477   18.7062 C   0  0  0  0  0  0  0  0  0  0  0  0
    5.2882   -0.5962   17.6396 N   0  0  0  0  0  0  0  0  0  0  0  0
    4.2194    0.1456   17.8109 C   0  0  0  0  0  0  0  0  0  0  0  0
    3.8733    0.7861   19.0369 C   0  0  0  0  0  0  0  0  0  0  0  0
    2.7017    1.5777   19.1630 C   0  0  0  0  0  0  0  0  0  0  0  0
    2.3972    2.1779   20.3531 C   0  0  0  0  0  0  0  0  0  0  0  0
    3.2511    2.0212   21.4706 C   0  0  0  0  0  0  0  0  0  0  0  0
    4.3932    1.2630   21.3801 C   0  0  0  0  0  0  0  0  0  0  0  0
    4.7301    0.6259   20.1455 C   0  0  0  0  0  0  0  0  0  0  0  0
    6.6108   -1.1538   22.0084 C   0  0  0  0  0  0  0  0  0  0  0  0
    5.6866   -1.9301   22.0427 O   0  0  0  0  0  0  0  0  0  0  0  0
    7.6782   -0.8985   23.0958 C   0  0  1  0  0  0  0  0  0  0  0  0
    8.2222   -2.2623   23.5937 C   0  0  0  0  0  0  0  0  0  0  0  0
    7.2314   -2.9874   24.3703 N   0  0  0  0  0  0  0  0  0  0  0  0
    7.3077   -4.4312   24.3422 C   0  0  0  0  0  0  0  0  0  0  0  0
    8.5266   -4.9743   25.0106 C   0  0  0  0  0  0  0  0  0  0  0  0
    9.3195   -5.8997   24.4356 N   0  0  0  0  0  0  0  0  0  0  0  0
   10.2523   -6.1716   25.3040 N   0  0  0  0  0  0  0  0  0  0  0  0
    9.9924   -5.4417   26.3647 N   0  0  0  0  0  0  0  0  0  0  0  0
   10.7343   -5.5372   27.6039 C   0  0  0  0  0  0  0  0  0  0  0  0
    8.9259   -4.6729   26.2367 N   0  0  0  0  0  0  0  0  0  0  0  0
    6.6131   -2.3857   25.4375 C   0  0  0  0  0  0  0  0  0  0  0  0
    6.0961   -3.0200   26.3487 O   0  0  0  0  0  0  0  0  0  0  0  0
    6.5922   -0.8890   25.4054 C   0  0  0  0  0  0  0  0  0  0  0  0
    6.0689   -0.2415   26.5259 C   0  0  0  0  0  0  0  0  0  0  0  0
    5.9556    1.1342   26.5559 C   0  0  0  0  0  0  0  0  0  0  0  0
    6.3737    1.8487   25.4397 C   0  0  0  0  0  0  0  0  0  0  0  0
    6.2469    3.1900   25.4505 F   0  0  0  0  0  0  0  0  0  0  0  0
    6.9191    1.2313   24.3255 C   0  0  0  0  0  0  0  0  0  0  0  0
    7.0606   -0.1667   24.2980 C   0  0  0  0  0  0  0  0  0  0  0  0
  2  1  1  6
  2  3  1  0
  3  4  1  0
  4  5  1  0
  5  6  2  0
  6  7  1  0
  7  8  2  0
  8  9  1  0
  9 10  2  0
 10 11  1  0
 11 12  2  0
 12 13  1  0
 13 14  2  0
  4 15  1  0
 15 16  2  0
 15 17  1  0
 17 18  1  1
 18 19  1  0
 19 20  1  0
 20 21  1  0
 21 22  1  0
 22 23  2  0
 23 24  1  0
 24 25  1  0
 24 26  1  0
 19 27  1  0
 27 28  2  0
 27 29  1  0
 29 30  2  0
 30 31  1  0
 31 32  2  0
 32 33  1  0
 32 34  1  0
 34 35  2  0
 17  2  1  0
 26 21  2  0
 35 29  1  0
 14  5  1  0
 35 17  1  0
 14  9  1  0
M  END
>  <cnnaffinities>  (142) 
[6.11628, 6.13413]

>  <score>  (142) 
6.11628

>  <index>  (142) 
70

>  <Smiles>  (142) 
C([C@]1(C(N(c2c(nc(c3c(c(c(c(c23)[H])[H])[H])[H])[H])[H])C(=O)[C@]21C(N(C(c1nnn(C([H])([H])[H])n1)([H])[H])C(=O)c1c(c(c(F)c(c21)[H])[H])[H])([H])[H])([H])[H])[H])([H])([H])[H]

>  <h>  (142) 
<NA>

>  <Training>  (142) 
True

>  <Success>  (142) 
True

>  <enamine_searched>  (142) 
False

>  <enamine_id>  (142) 
nan

$$$$

     RDKit          3D

 31 35  0  0  0  0  0  0  0  0999 V2000
   -8.6389   -3.6566  -23.8197 C   0  0  0  0  0  0  0  0  0  0  0  0
   -8.7240   -2.7167  -22.6146 C   0  0  1  0  0  0  0  0  0  0  0  0
   -7.3640   -2.4614  -21.9443 C   0  0  0  0  0  0  0  0  0  0  0  0
   -7.5894   -1.2115  -21.2391 N   0  0  0  0  0  0  0  0  0  0  0  0
   -6.7531   -0.7719  -20.1816 C   0  0  0  0  0  0  0  0  0  0  0  0
   -7.0201   -1.1537  -18.8476 C   0  0  0  0  0  0  0  0  0  0  0  0
   -6.2470   -0.8209  -17.7952 N   0  0  0  0  0  0  0  0  0  0  0  0
   -5.1584   -0.0687  -18.0278 C   0  0  0  0  0  0  0  0  0  0  0  0
   -4.8112    0.3854  -19.3062 C   0  0  0  0  0  0  0  0  0  0  0  0
   -3.6971    1.2180  -19.4893 C   0  0  0  0  0  0  0  0  0  0  0  0
   -3.3417    1.6415  -20.7716 C   0  0  0  0  0  0  0  0  0  0  0  0
   -4.0871    1.2260  -21.8792 C   0  0  0  0  0  0  0  0  0  0  0  0
   -5.2186    0.4206  -21.6969 C   0  0  0  0  0  0  0  0  0  0  0  0
   -5.6038    0.0084  -20.4111 C   0  0  0  0  0  0  0  0  0  0  0  0
   -8.6367   -0.5159  -21.8263 C   0  0  0  0  0  0  0  0  0  0  0  0
   -9.0101    0.5981  -21.4930 O   0  0  0  0  0  0  0  0  0  0  0  0
   -9.2552   -1.3056  -22.9751 C   0  0  1  0  0  0  0  0  0  0  0  0
   -8.6411   -0.5599  -24.1810 C   0  0  0  0  0  0  0  0  0  0  0  0
   -9.0876    0.8328  -24.1456 N   0  0  0  0  0  0  0  0  0  0  0  0
   -8.1360    1.9348  -24.3731 C   0  0  0  0  0  0  0  0  0  0  0  0
   -7.7670    2.6248  -23.1260 C   0  0  0  0  0  0  0  0  0  0  0  0
   -7.4167    3.1914  -22.1735 N   0  0  0  0  0  0  0  0  0  0  0  0
  -10.4563    1.0614  -24.0007 C   0  0  0  0  0  0  0  0  0  0  0  0
  -10.9055    2.1534  -24.3236 O   0  0  0  0  0  0  0  0  0  0  0  0
  -11.3562   -0.0147  -23.5323 C   0  0  0  0  0  0  0  0  0  0  0  0
  -12.7608    0.1121  -23.5664 C   0  0  0  0  0  0  0  0  0  0  0  0
  -13.5737   -0.9335  -23.1125 C   0  0  0  0  0  0  0  0  0  0  0  0
  -13.0025   -2.1087  -22.6267 C   0  0  0  0  0  0  0  0  0  0  0  0
  -13.7931   -3.0883  -22.1269 F   0  0  0  0  0  0  0  0  0  0  0  0
  -11.6109   -2.2511  -22.6473 C   0  0  0  0  0  0  0  0  0  0  0  0
  -10.7750   -1.2038  -23.0608 C   0  0  0  0  0  0  0  0  0  0  0  0
  2  1  1  6
  2  3  1  0
  3  4  1  0
  4  5  1  0
  5  6  2  0
  6  7  1  0
  7  8  2  0
  8  9  1  0
  9 10  2  0
 10 11  1  0
 11 12  2  0
 12 13  1  0
 13 14  2  0
  4 15  1  0
 15 16  2  0
 15 17  1  0
 17 18  1  6
 18 19  1  0
 19 20  1  0
 20 21  1  0
 21 22  3  0
 19 23  1  0
 23 24  2  0
 23 25  1  0
 25 26  2  0
 26 27  1  0
 27 28  2  0
 28 29  1  0
 28 30  1  0
 30 31  2  0
 17  2  1  0
 31 25  1  0
 14  5  1  0
 31 17  1  0
 14  9  1  0
M  END
$$$$

     RDKit          3D

 35 40  0  0  0  0  0  0  0  0999 V2000
    7.9797   -1.5658   24.2256 C   0  0  0  0  0  0  0  0  0  0  0  0
    8.1045   -1.1258   22.7693 C   0  0  1  0  0  0  0  0  0  0  0  0
    6.7934   -1.3249   21.9955 C   0  0  0  0  0  0  0  0  0  0  0  0
    6.8480   -0.3096   20.9761 N   0  0  0  0  0  0  0  0  0  0  0  0
    5.8832   -0.1669   19.9529 C   0  0  0  0  0  0  0  0  0  0  0  0
    6.0833   -0.7870   18.7495 C   0  0  0  0  0  0  0  0  0  0  0  0
    5.2638   -0.6535   17.6782 N   0  0  0  0  0  0  0  0  0  0  0  0
    4.1989    0.0985   17.8264 C   0  0  0  0  0  0  0  0  0  0  0  0
    3.8559    0.7677   19.0377 C   0  0  0  0  0  0  0  0  0  0  0  0
    2.6801    1.5539   19.1645 C   0  0  0  0  0  0  0  0  0  0  0  0
    2.3600    2.1443   20.3550 C   0  0  0  0  0  0  0  0  0  0  0  0
    3.2185    2.0153   21.4707 C   0  0  0  0  0  0  0  0  0  0  0  0
    4.3755    1.2793   21.3717 C   0  0  0  0  0  0  0  0  0  0  0  0
    4.7179    0.6341   20.1493 C   0  0  0  0  0  0  0  0  0  0  0  0
    7.8133    0.6515   21.1733 C   0  0  0  0  0  0  0  0  0  0  0  0
    8.0237    1.5674   20.4127 O   0  0  0  0  0  0  0  0  0  0  0  0
    8.5446    0.3445   22.4948 C   0  0  1  0  0  0  0  0  0  0  0  0
    8.0750    1.2932   23.6212 C   0  0  0  0  0  0  0  0  0  0  0  0
    8.5721    2.6470   23.4591 N   0  0  0  0  0  0  0  0  0  0  0  0
    7.7254    3.7700   23.8083 C   0  0  0  0  0  0  0  0  0  0  0  0
    7.1296    4.4230   22.5948 C   0  0  0  0  0  0  0  0  0  0  0  0
    6.1899    3.8370   21.8770 N   0  0  0  0  0  0  0  0  0  0  0  0
    5.8630    4.7531   20.9052 C   0  0  0  0  0  0  0  0  0  0  0  0
    6.6264    5.8824   21.0372 C   0  0  0  0  0  0  0  0  0  0  0  0
    7.4275    5.6692   22.1335 N   0  0  0  0  0  0  0  0  0  0  0  0
    8.2747    6.6571   22.7814 C   0  0  0  0  0  0  0  0  0  0  0  0
    9.8802    2.9083   23.1690 C   0  0  0  0  0  0  0  0  0  0  0  0
   10.3708    4.0301   23.2463 O   0  0  0  0  0  0  0  0  0  0  0  0
   10.6698    1.7366   22.6904 C   0  0  0  0  0  0  0  0  0  0  0  0
   12.0314    1.9402   22.4701 C   0  0  0  0  0  0  0  0  0  0  0  0
   12.8139    0.9249   21.9542 C   0  0  0  0  0  0  0  0  0  0  0  0
   12.1814   -0.2711   21.6251 C   0  0  0  0  0  0  0  0  0  0  0  0
   12.9260   -1.2825   21.1387 F   0  0  0  0  0  0  0  0  0  0  0  0
   10.8166   -0.4563   21.7255 C   0  0  0  0  0  0  0  0  0  0  0  0
   10.0392    0.5366   22.3305 C   0  0  0  0  0  0  0  0  0  0  0  0
  2  1  1  1
  2  3  1  0
  3  4  1  0
  4  5  1  0
  5  6  2  0
  6  7  1  0
  7  8  2  0
  8  9  1  0
  9 10  2  0
 10 11  1  0
 11 12  2  0
 12 13  1  0
 13 14  2  0
  4 15  1  0
 15 16  2  0
 15 17  1  0
 17 18  1  1
 18 19  1  0
 19 20  1  0
 20 21  1  0
 21 22  2  0
 22 23  1  0
 23 24  2  0
 24 25  1  0
 25 26  1  0
 19 27  1  0
 27 28  2  0
 27 29  1  0
 29 30  2  0
 30 31  1  0
 31 32  2  0
 32 33  1  0
 32 34  1  0
 34 35  2  0
 17  2  1  0
 25 21  1  0
 35 29  1  0
 14  5  1  0
 35 17  1  0
 14  9  1  0
M  END
>  <cnnaffinities>  (144) 
[6.02154, 6.11455, 6.12123]

>  <score>  (144) 
6.02154

>  <index>  (144) 
71

>  <Smiles>  (144) 
C([C@]1(C(N(c2c(nc(c3c(c(c(c(c23)[H])[H])[H])[H])[H])[H])C(=O)[C@]21C(N(C(c1nc(c(n1C([H])([H])[H])[H])[H])([H])[H])C(=O)c1c(c(c(F)c(c21)[H])[H])[H])([H])[H])([H])[H])[H])([H])([H])[H]

>  <h>  (144) 
<NA>

>  <Training>  (144) 
True

>  <Success>  (144) 
True

>  <enamine_searched>  (144) 
False

>  <enamine_id>  (144) 
nan

$$$$

     RDKit          3D

 36 40  0  0  0  0  0  0  0  0999 V2000
    8.2728    6.0643   26.0528 C   0  0  0  0  0  0  0  0  0  0  0  0
    8.2730    5.4596   24.7315 N   0  0  0  0  0  0  0  0  0  0  0  0
    7.5889    4.3096   24.5247 C   0  0  0  0  0  0  0  0  0  0  0  0
    6.8698    3.8028   25.3746 O   0  0  0  0  0  0  0  0  0  0  0  0
    7.7183    3.6971   23.1227 C   0  0  0  0  0  0  0  0  0  0  0  0
    8.6319    2.5793   23.0459 N   0  0  0  0  0  0  0  0  0  0  0  0
    8.2095    1.2605   23.4739 C   0  0  0  0  0  0  0  0  0  0  0  0
    8.6600    0.1954   22.4380 C   0  0  2  0  0  0  0  0  0  0  0  0
    7.9419    0.4937   21.0996 C   0  0  0  0  0  0  0  0  0  0  0  0
    8.2432    1.3311   20.2834 O   0  0  0  0  0  0  0  0  0  0  0  0
    6.8488   -0.3377   20.9948 N   0  0  0  0  0  0  0  0  0  0  0  0
    5.8937   -0.1638   19.9628 C   0  0  0  0  0  0  0  0  0  0  0  0
    6.0727   -0.7988   18.7624 C   0  0  0  0  0  0  0  0  0  0  0  0
    5.2464   -0.6683   17.6960 N   0  0  0  0  0  0  0  0  0  0  0  0
    4.1859    0.0882   17.8441 C   0  0  0  0  0  0  0  0  0  0  0  0
    3.8374    0.7547   19.0546 C   0  0  0  0  0  0  0  0  0  0  0  0
    2.6539    1.5324   19.1789 C   0  0  0  0  0  0  0  0  0  0  0  0
    2.3505    2.1617   20.3528 C   0  0  0  0  0  0  0  0  0  0  0  0
    3.2309    2.0616   21.4521 C   0  0  0  0  0  0  0  0  0  0  0  0
    4.3850    1.3222   21.3569 C   0  0  0  0  0  0  0  0  0  0  0  0
    4.7178    0.6377   20.1526 C   0  0  0  0  0  0  0  0  0  0  0  0
    6.7050   -1.2673   22.0905 C   0  0  0  0  0  0  0  0  0  0  0  0
    8.1054   -1.2272   22.7589 C   0  0  2  0  0  0  0  0  0  0  0  0
    8.0630   -1.6185   24.1615 N   0  0  0  0  0  0  0  0  0  0  0  0
    7.5786   -2.8404   24.5416 C   0  0  0  0  0  0  0  0  0  0  0  0
    7.1477   -3.6498   23.7287 O   0  0  0  0  0  0  0  0  0  0  0  0
    7.5979   -3.1307   26.0334 C   0  0  0  0  0  0  0  0  0  0  0  0
   10.1636    0.3545   22.2819 C   0  0  0  0  0  0  0  0  0  0  0  0
   10.9714   -0.7068   21.8560 C   0  0  0  0  0  0  0  0  0  0  0  0
   12.3307   -0.5129   21.6800 C   0  0  0  0  0  0  0  0  0  0  0  0
   13.3235   -1.8339   21.1387 Cl  0  0  0  0  0  0  0  0  0  0  0  0
   12.9256    0.7292   21.8910 C   0  0  0  0  0  0  0  0  0  0  0  0
   12.1295    1.7946   22.2636 C   0  0  0  0  0  0  0  0  0  0  0  0
   10.7604    1.6207   22.4456 C   0  0  0  0  0  0  0  0  0  0  0  0
    9.9377    2.8346   22.7625 C   0  0  0  0  0  0  0  0  0  0  0  0
   10.3881    3.9794   22.7542 O   0  0  0  0  0  0  0  0  0  0  0  0
  1  2  1  0
  2  3  1  0
  3  4  2  0
  3  5  1  0
  5  6  1  0
  6  7  1  0
  8  7  1  1
  8  9  1  0
  9 10  2  0
  9 11  1  0
 11 12  1  0
 12 13  2  0
 13 14  1  0
 14 15  2  0
 15 16  1  0
 16 17  2  0
 17 18  1  0
 18 19  2  0
 19 20  1  0
 20 21  2  0
 11 22  1  0
 22 23  1  0
 23 24  1  1
 24 25  1  0
 25 26  2  0
 25 27  1  0
  8 28  1  0
 28 29  2  0
 29 30  1  0
 30 31  1  0
 30 32  2  0
 32 33  1  0
 33 34  2  0
 34 35  1  0
 35 36  2  0
 35  6  1  0
 23  8  1  0
 34 28  1  0
 21 12  1  0
 21 16  1  0
M  END
>  <cnnaffinities>  (145) 
[6.05589, 6.13693, 5.87553, 6.07426, 6.14646, 6.22595]

>  <score>  (145) 
6.05589

>  <index>  (145) 
72

>  <Smiles>  (145) 
C(N(C(=O)C(N1C([C@@]2(C(=O)N(c3c(nc(c4c(c(c(c(c34)[H])[H])[H])[H])[H])[H])C([C@@]2(N(C(=O)C([H])([H])[H])[H])[H])([H])[H])c2c(c(Cl)c(c(c2C1=O)[H])[H])[H])([H])[H])([H])[H])[H])([H])([H])[H]

>  <h>  (145) 
<NA>

>  <Training>  (145) 
True

>  <Success>  (145) 
True

>  <enamine_searched>  (145) 
False

>  <enamine_id>  (145) 
nan

$$$$

     RDKit          3D

 23 26  0  0  0  0  0  0  0  0999 V2000
   -8.6552    0.7030  -21.2778 O   0  0  0  0  0  0  0  0  0  0  0  0
   -8.6395   -0.4437  -21.7006 C   0  0  0  0  0  0  0  0  0  0  0  0
   -7.5214   -1.4109  -21.2833 C   0  0  0  0  0  0  0  0  0  0  0  0
   -6.6484   -0.8446  -20.1950 C   0  0  0  0  0  0  0  0  0  0  0  0
   -6.9584   -1.0659  -18.8823 C   0  0  0  0  0  0  0  0  0  0  0  0
   -6.2856   -0.5735  -17.8056 N   0  0  0  0  0  0  0  0  0  0  0  0
   -5.2447    0.1875  -18.0657 C   0  0  0  0  0  0  0  0  0  0  0  0
   -4.7992    0.5096  -19.3767 C   0  0  0  0  0  0  0  0  0  0  0  0
   -3.6634    1.3305  -19.6024 C   0  0  0  0  0  0  0  0  0  0  0  0
   -3.2628    1.6209  -20.8781 C   0  0  0  0  0  0  0  0  0  0  0  0
   -3.9841    1.1140  -21.9793 C   0  0  0  0  0  0  0  0  0  0  0  0
   -5.0923    0.3284  -21.7873 C   0  0  0  0  0  0  0  0  0  0  0  0
   -5.5250   -0.0073  -20.4772 C   0  0  0  0  0  0  0  0  0  0  0  0
   -9.6213   -0.9370  -22.5267 N   0  0  0  0  0  0  0  0  0  0  0  0
   -9.5826   -2.2395  -23.2062 C   0  0  0  0  0  0  0  0  0  0  0  0
  -10.3181   -3.3440  -22.4320 C   0  0  0  0  0  0  0  0  0  0  0  0
  -11.5432   -2.7729  -21.6921 C   0  0  0  0  0  0  0  0  0  0  0  0
  -12.4375   -1.8308  -22.4788 C   0  0  0  0  0  0  0  0  0  0  0  0
  -14.1507   -2.0928  -22.6402 S   0  0  0  0  0  0  0  0  0  0  0  0
  -14.3751   -0.5531  -23.3848 C   0  0  0  0  0  0  0  0  0  0  0  0
  -13.2023    0.1218  -23.5031 C   0  0  0  0  0  0  0  0  0  0  0  0
  -12.0752   -0.6085  -22.9777 C   0  0  0  0  0  0  0  0  0  0  0  0
  -10.6821   -0.0068  -22.9078 C   0  0  0  0  0  0  0  0  0  0  0  0
  1  2  2  0
  2  3  1  0
  3  4  1  0
  4  5  2  0
  5  6  1  0
  6  7  2  0
  7  8  1  0
  8  9  2  0
  9 10  1  0
 10 11  2  0
 11 12  1  0
 12 13  2  0
  2 14  1  0
 14 15  1  0
 15 16  1  0
 16 17  1  0
 17 18  1  0
 18 19  1  0
 19 20  1  0
 20 21  2  0
 21 22  1  0
 22 23  1  0
 13  4  1  0
 23 14  1  0
 13  8  1  0
 22 18  2  0
M  END
>  <cnnaffinities>  (146) 
[5.62526, 5.41941, 5.3597, 5.23042, 5.20166, 5.07236, 5.15493, 5.11482, 5.01826, 5.2796]

>  <score>  (146) 
5.62526

>  <index>  (146) 
72

>  <Smiles>  (146) 
O=C(C(c1c(nc(c2c(c(c(c(c12)[H])[H])[H])[H])[H])[H])([H])[H])N1C(C(C(c2sc(c(c2C1([H])[H])[H])[H])([H])[H])([H])[H])([H])[H]

>  <h>  (146) 
<NA>

>  <Training>  (146) 
True

>  <Success>  (146) 
True

>  <enamine_searched>  (146) 
False

>  <enamine_id>  (146) 
nan

$$$$

     RDKit          3D

 26 29  0  0  0  0  0  0  0  0999 V2000
  -10.4542   -3.7024  -25.2039 O   0  0  0  0  0  0  0  0  0  0  0  0
   -9.6107   -4.2368  -24.4913 C   0  0  0  0  0  0  0  0  0  0  0  0
   -8.7680   -3.3560  -23.5574 C   0  0  0  0  0  0  0  0  0  0  0  0
   -9.2018   -1.8908  -23.5949 C   0  0  0  0  0  0  0  0  0  0  0  0
   -8.3075   -0.8696  -23.9769 C   0  0  0  0  0  0  0  0  0  0  0  0
   -8.6769    0.4089  -24.1458 N   0  0  0  0  0  0  0  0  0  0  0  0
   -9.9767    0.7130  -23.9757 C   0  0  0  0  0  0  0  0  0  0  0  0
  -10.9399   -0.2260  -23.6104 C   0  0  0  0  0  0  0  0  0  0  0  0
  -12.2844    0.1402  -23.4928 C   0  0  0  0  0  0  0  0  0  0  0  0
  -13.2445   -0.8132  -23.1413 C   0  0  0  0  0  0  0  0  0  0  0  0
  -12.8589   -2.1300  -22.8662 C   0  0  0  0  0  0  0  0  0  0  0  0
  -11.5068   -2.4948  -22.9886 C   0  0  0  0  0  0  0  0  0  0  0  0
  -10.5454   -1.5503  -23.3789 C   0  0  0  0  0  0  0  0  0  0  0  0
   -9.4477   -5.6222  -24.5971 N   0  0  0  0  0  0  0  0  0  0  0  0
  -10.0433   -6.2358  -25.7868 C   0  0  0  0  0  0  0  0  0  0  0  0
   -9.1001   -5.8651  -26.9388 C   0  0  0  0  0  0  0  0  0  0  0  0
   -7.7020   -6.4459  -26.6673 C   0  0  0  0  0  0  0  0  0  0  0  0
   -7.1741   -6.0242  -25.2845 C   0  0  0  0  0  0  0  0  0  0  0  0
   -8.2114   -6.2910  -24.1896 C   0  0  1  0  0  0  0  0  0  0  0  0
   -7.6160   -5.8855  -22.8342 C   0  0  0  0  0  0  0  0  0  0  0  0
   -6.4044   -6.7619  -22.5594 C   0  0  0  0  0  0  0  0  0  0  0  0
   -6.4694   -8.1560  -22.7336 C   0  0  0  0  0  0  0  0  0  0  0  0
   -5.3303   -8.9537  -22.5573 C   0  0  0  0  0  0  0  0  0  0  0  0
   -4.1094   -8.3626  -22.2225 C   0  0  0  0  0  0  0  0  0  0  0  0
   -4.0322   -6.9785  -22.0516 C   0  0  0  0  0  0  0  0  0  0  0  0
   -5.1742   -6.1835  -22.2122 C   0  0  0  0  0  0  0  0  0  0  0  0
  1  2  2  0
  2  3  1  0
  3  4  1  0
  4  5  2  0
  5  6  1  0
  6  7  2  0
  7  8  1  0
  8  9  2  0
  9 10  1  0
 10 11  2  0
 11 12  1  0
 12 13  2  0
  2 14  1  0
 14 15  1  0
 15 16  1  0
 16 17  1  0
 17 18  1  0
 18 19  1  0
 19 20  1  1
 20 21  1  0
 21 22  2  0
 22 23  1  0
 23 24  2  0
 24 25  1  0
 25 26  2  0
 13  4  1  0
 19 14  1  0
 26 21  1  0
 13  8  1  0
M  END
$$$$

     RDKit          3D

 32 37  0  0  0  0  0  0  0  0999 V2000
    8.1660   -2.2742   23.9741 C   0  0  0  0  0  0  0  0  0  0  0  0
    8.5374   -1.6207   22.6419 C   0  0  1  0  0  0  0  0  0  0  0  0
    7.3201   -1.4810   21.7091 C   0  0  0  0  0  0  0  0  0  0  0  0
    7.6258   -0.2998   20.9343 N   0  0  0  0  0  0  0  0  0  0  0  0
    6.7842    0.2214   19.9301 C   0  0  0  0  0  0  0  0  0  0  0  0
    7.1054   -0.0075   18.6218 C   0  0  0  0  0  0  0  0  0  0  0  0
    6.3827    0.4434   17.5699 N   0  0  0  0  0  0  0  0  0  0  0  0
    5.3271    1.1706   17.8593 C   0  0  0  0  0  0  0  0  0  0  0  0
    4.9152    1.5184   19.1793 C   0  0  0  0  0  0  0  0  0  0  0  0
    3.7870    2.3428   19.4219 C   0  0  0  0  0  0  0  0  0  0  0  0
    3.4064    2.6450   20.6994 C   0  0  0  0  0  0  0  0  0  0  0  0
    4.1320    2.1372   21.8003 C   0  0  0  0  0  0  0  0  0  0  0  0
    5.2262    1.3322   21.5934 C   0  0  0  0  0  0  0  0  0  0  0  0
    5.6542    1.0177   20.2685 C   0  0  0  0  0  0  0  0  0  0  0  0
    8.5807    0.5203   21.4810 C   0  0  0  0  0  0  0  0  0  0  0  0
    8.8121    1.6393   21.0667 O   0  0  0  0  0  0  0  0  0  0  0  0
    9.2039   -0.2038   22.6883 C   0  0  1  0  0  0  0  0  0  0  0  0
    8.8655    0.6043   23.9614 C   0  0  0  0  0  0  0  0  0  0  0  0
    9.5025    1.9042   23.9103 N   0  0  0  0  0  0  0  0  0  0  0  0
    8.7727    3.0581   24.3907 C   0  0  0  0  0  0  0  0  0  0  0  0
    7.4044    3.3550   23.7290 C   0  0  0  0  0  0  0  0  0  0  0  0
    7.8991    4.6828   23.1746 N   0  0  0  0  0  0  0  0  0  0  0  0
    9.2454    4.4181   23.8215 C   0  0  0  0  0  0  0  0  0  0  0  0
   10.8625    1.9767   23.7704 C   0  0  0  0  0  0  0  0  0  0  0  0
   11.5285    2.9484   24.1114 O   0  0  0  0  0  0  0  0  0  0  0  0
   11.4895    0.7538   23.1806 C   0  0  0  0  0  0  0  0  0  0  0  0
   12.8734    0.6247   23.2462 C   0  0  0  0  0  0  0  0  0  0  0  0
   13.5114   -0.3697   22.5332 C   0  0  0  0  0  0  0  0  0  0  0  0
   12.7420   -1.1651   21.6809 C   0  0  0  0  0  0  0  0  0  0  0  0
   13.5535   -2.2269   20.5725 Cl  0  0  0  0  0  0  0  0  0  0  0  0
   11.3597   -1.1312   21.7045 C   0  0  0  0  0  0  0  0  0  0  0  0
   10.7112   -0.2177   22.5431 C   0  0  0  0  0  0  0  0  0  0  0  0
  2  1  1  1
  2  3  1  0
  3  4  1  0
  4  5  1  0
  5  6  2  0
  6  7  1  0
  7  8  2  0
  8  9  1  0
  9 10  2  0
 10 11  1  0
 11 12  2  0
 12 13  1  0
 13 14  2  0
  4 15  1  0
 15 16  2  0
 15 17  1  0
 17 18  1  1
 18 19  1  0
 19 20  1  0
 20 21  1  0
 21 22  1  0
 22 23  1  0
 19 24  1  0
 24 25  2  0
 24 26  1  0
 26 27  2  0
 27 28  1  0
 28 29  2  0
 29 30  1  0
 29 31  1  0
 31 32  2  0
 17  2  1  0
 23 20  1  0
 32 26  1  0
 14  5  1  0
 32 17  1  0
 14  9  1  0
M  CHG  1  22   1
M  END
>  <cnnaffinities>  (148) 
[6.57799, 6.57612, 6.45194, 6.4499, 5.84613, 5.84407]

>  <score>  (148) 
6.57799

>  <index>  (148) 
2

>  <Smiles>  (148) 
C([C@]1(C(N(c2c(nc(c3c(c(c(c(c23)[H])[H])[H])[H])[H])[H])C(=O)[C@]21C(N(C1(C([N+](C1([H])[H])([H])[H])([H])[H])[H])C(=O)c1c(c(c(Cl)c(c21)[H])[H])[H])([H])[H])([H])[H])[H])([H])([H])[H]

>  <h>  (148) 
<NA>

>  <Training>  (148) 
True

>  <Success>  (148) 
True

>  <enamine_searched>  (148) 
False

>  <enamine_id>  (148) 
nan

$$$$

     RDKit          3D

 34 39  0  0  0  0  0  0  0  0999 V2000
    8.3060   -2.4743   23.7985 C   0  0  0  0  0  0  0  0  0  0  0  0
    8.6119   -1.7372   22.4936 C   0  0  1  0  0  0  0  0  0  0  0  0
    7.3515   -1.5730   21.6228 C   0  0  0  0  0  0  0  0  0  0  0  0
    7.5959   -0.3369   20.9162 N   0  0  0  0  0  0  0  0  0  0  0  0
    6.7666    0.1961   19.9139 C   0  0  0  0  0  0  0  0  0  0  0  0
    7.0920   -0.0287   18.6048 C   0  0  0  0  0  0  0  0  0  0  0  0
    6.3681    0.4211   17.5546 N   0  0  0  0  0  0  0  0  0  0  0  0
    5.3132    1.1505   17.8394 C   0  0  0  0  0  0  0  0  0  0  0  0
    4.8968    1.4951   19.1587 C   0  0  0  0  0  0  0  0  0  0  0  0
    3.7784    2.3340   19.4029 C   0  0  0  0  0  0  0  0  0  0  0  0
    3.3905    2.6221   20.6804 C   0  0  0  0  0  0  0  0  0  0  0  0
    4.1049    2.0917   21.7803 C   0  0  0  0  0  0  0  0  0  0  0  0
    5.2036    1.2927   21.5734 C   0  0  0  0  0  0  0  0  0  0  0  0
    5.6300    0.9876   20.2495 C   0  0  0  0  0  0  0  0  0  0  0  0
    8.5990    0.4427   21.4327 C   0  0  0  0  0  0  0  0  0  0  0  0
    8.9098    1.5225   20.9775 O   0  0  0  0  0  0  0  0  0  0  0  0
    9.1960   -0.2993   22.6412 C   0  0  1  0  0  0  0  0  0  0  0  0
    8.7105    0.3456   23.9594 C   0  0  0  0  0  0  0  0  0  0  0  0
    9.1476    1.7202   24.0541 N   0  0  0  0  0  0  0  0  0  0  0  0
    8.2311    2.7630   24.5013 C   0  0  0  0  0  0  0  0  0  0  0  0
    7.9893    3.8576   23.4944 C   0  0  0  0  0  0  0  0  0  0  0  0
    8.8332    4.9160   23.0380 C   0  0  0  0  0  0  0  0  0  0  0  0
    8.0461    5.5755   22.1559 C   0  0  0  0  0  0  0  0  0  0  0  0
    6.8437    4.9884   22.0736 O   0  0  0  0  0  0  0  0  0  0  0  0
    6.8087    3.9187   22.9272 N   0  0  0  0  0  0  0  0  0  0  0  0
   10.4730    2.0143   23.8712 C   0  0  0  0  0  0  0  0  0  0  0  0
   10.9792    3.0725   24.2217 O   0  0  0  0  0  0  0  0  0  0  0  0
   11.3001    0.9343   23.2381 C   0  0  0  0  0  0  0  0  0  0  0  0
   12.6875    1.0488   23.2888 C   0  0  0  0  0  0  0  0  0  0  0  0
   13.4831    0.1279   22.6356 C   0  0  0  0  0  0  0  0  0  0  0  0
   12.8702   -0.8694   21.8820 C   0  0  0  0  0  0  0  0  0  0  0  0
   13.6363   -1.7108   21.1666 F   0  0  0  0  0  0  0  0  0  0  0  0
   11.4996   -1.0192   21.8420 C   0  0  0  0  0  0  0  0  0  0  0  0
   10.7005   -0.1572   22.5979 C   0  0  0  0  0  0  0  0  0  0  0  0
  2  1  1  1
  2  3  1  0
  3  4  1  0
  4  5  1  0
  5  6  2  0
  6  7  1  0
  7  8  2  0
  8  9  1  0
  9 10  2  0
 10 11  1  0
 11 12  2  0
 12 13  1  0
 13 14  2  0
  4 15  1  0
 15 16  2  0
 15 17  1  0
 17 18  1  1
 18 19  1  0
 19 20  1  0
 20 21  1  0
 21 22  1  0
 22 23  2  0
 23 24  1  0
 24 25  1  0
 19 26  1  0
 26 27  2  0
 26 28  1  0
 28 29  2  0
 29 30  1  0
 30 31  2  0
 31 32  1  0
 31 33  1  0
 33 34  2  0
 17  2  1  0
 25 21  2  0
 34 28  1  0
 14  5  1  0
 34 17  1  0
 14  9  1  0
M  END
>  <cnnaffinities>  (149) 
[6.52509]

>  <score>  (149) 
6.52509

>  <index>  (149) 
3

>  <Smiles>  (149) 
C([C@]1(C(N(c2c(nc(c3c(c(c(c(c23)[H])[H])[H])[H])[H])[H])C(=O)[C@]21C(N(C(c1c(c(on1)[H])[H])([H])[H])C(=O)c1c(c(c(F)c(c21)[H])[H])[H])([H])[H])([H])[H])[H])([H])([H])[H]

>  <h>  (149) 
<NA>

>  <Training>  (149) 
True

>  <Success>  (149) 
True

>  <enamine_searched>  (149) 
False

>  <enamine_id>  (149) 
nan

$$$$

     RDKit          3D

 41 46  0  0  0  0  0  0  0  0999 V2000
    4.1252   -1.7255   27.8523 C   0  0  0  0  0  0  0  0  0  0  0  0
    3.1034   -0.9000   28.3704 O   0  0  0  0  0  0  0  0  0  0  0  0
    2.9727    0.3404   27.8245 C   0  0  0  0  0  0  0  0  0  0  0  0
    1.9620    1.1529   28.3523 C   0  0  0  0  0  0  0  0  0  0  0  0
    1.7825    2.4378   27.8617 C   0  0  0  0  0  0  0  0  0  0  0  0
    2.5916    2.9190   26.8362 C   0  0  0  0  0  0  0  0  0  0  0  0
    3.5747    2.1022   26.2965 C   0  0  0  0  0  0  0  0  0  0  0  0
    4.5068    2.6384   25.2457 C   0  0  0  0  0  0  0  0  0  0  0  0
    5.6465    3.2549   25.9006 N   0  0  0  0  0  0  0  0  0  0  0  0
    6.6389    3.9619   25.2869 C   0  0  0  0  0  0  0  0  0  0  0  0
    7.4215    4.6464   25.9156 O   0  0  0  0  0  0  0  0  0  0  0  0
    6.7162    3.8057   23.7592 C   0  0  0  0  0  0  0  0  0  0  0  0
    7.8243    2.9571   23.3599 N   0  0  0  0  0  0  0  0  0  0  0  0
    7.7700    1.5147   23.5837 C   0  0  0  0  0  0  0  0  0  0  0  0
    8.5080    0.7202   22.4526 C   0  0  2  0  0  0  0  0  0  0  0  0
    7.7171    0.9747   21.1310 C   0  0  0  0  0  0  0  0  0  0  0  0
    7.7000    1.9684   20.4415 O   0  0  0  0  0  0  0  0  0  0  0  0
    6.9771   -0.1521   20.8298 N   0  0  0  0  0  0  0  0  0  0  0  0
    5.9532   -0.1023   19.8547 C   0  0  0  0  0  0  0  0  0  0  0  0
    6.1088   -0.7639   18.6659 C   0  0  0  0  0  0  0  0  0  0  0  0
    5.2695   -0.6446   17.6103 N   0  0  0  0  0  0  0  0  0  0  0  0
    4.2150    0.1237   17.7618 C   0  0  0  0  0  0  0  0  0  0  0  0
    3.8867    0.7941   18.9743 C   0  0  0  0  0  0  0  0  0  0  0  0
    2.7136    1.5840   19.1066 C   0  0  0  0  0  0  0  0  0  0  0  0
    2.3838    2.1486   20.3081 C   0  0  0  0  0  0  0  0  0  0  0  0
    3.2227    1.9665   21.4292 C   0  0  0  0  0  0  0  0  0  0  0  0
    4.3843    1.2448   21.3170 C   0  0  0  0  0  0  0  0  0  0  0  0
    4.7579    0.6527   20.0751 C   0  0  0  0  0  0  0  0  0  0  0  0
    7.1600   -1.2493   21.7450 C   0  0  0  0  0  0  0  0  0  0  0  0
    8.3850   -0.8260   22.5799 C   0  0  2  0  0  0  0  0  0  0  0  0
    8.2820   -1.4085   23.9895 C   0  0  0  0  0  0  0  0  0  0  0  0
    9.9000    1.2786   22.4191 C   0  0  0  0  0  0  0  0  0  0  0  0
   11.2005    0.7839   22.1223 C   0  0  0  0  0  0  0  0  0  0  0  0
   13.6951    0.3954   23.5085 C   0  0  0  0  0  0  0  0  0  0  0  0
   13.7610   -0.5659   21.7109 Cl  0  0  0  0  0  0  0  0  0  0  0  0
   12.0536    1.8729   21.8925 C   0  0  0  0  0  0  0  0  0  0  0  0
   11.3842    3.0413   22.2353 C   0  0  0  0  0  0  0  0  0  0  0  0
   10.0566    2.6817   22.5610 C   0  0  0  0  0  0  0  0  0  0  0  0
    8.9929    3.5805   22.9937 C   0  0  0  0  0  0  0  0  0  0  0  0
    9.1222    4.8020   23.0258 O   0  0  0  0  0  0  0  0  0  0  0  0
    3.7843    0.8200   26.7995 C   0  0  0  0  0  0  0  0  0  0  0  0
  1  2  1  0
  2  3  1  0
  3  4  2  0
  4  5  1  0
  5  6  2  0
  6  7  1  0
  7  8  1  0
  8  9  1  0
  9 10  1  0
 10 11  2  0
 10 12  1  0
 12 13  1  0
 13 14  1  0
 15 14  1  1
 15 16  1  0
 16 17  2  0
 16 18  1  0
 18 19  1  0
 19 20  2  0
 20 21  1  0
 21 22  2  0
 22 23  1  0
 23 24  2  0
 24 25  1  0
 25 26  2  0
 26 27  1  0
 27 28  2  0
 18 29  1  0
 29 30  1  0
 30 31  1  1
 15 32  1  0
 32 33  2  0
 33 34  1  0
 34 35  1  0
 34 36  2  0
 36 37  1  0
 37 38  2  0
 38 39  1  0
 39 40  2  0
  7 41  2  0
 41  3  1  0
 39 13  1  0
 30 15  1  0
 38 32  1  0
 28 19  1  0
 28 23  1  0
M  END
$$$$

     RDKit          3D

 27 31  0  0  0  0  0  0  0  0999 V2000
    5.0600   -3.1075   22.1967 O   0  0  0  0  0  0  0  0  0  0  0  0
    6.0591   -2.4210   22.2713 C   0  0  0  0  0  0  0  0  0  0  0  0
    6.9921   -2.7059   23.2397 N   0  0  0  0  0  0  0  0  0  0  0  0
    8.2061   -1.9690   22.9655 C   0  0  2  0  0  0  0  0  0  0  0  0
    9.5114   -2.7595   22.8793 C   0  0  0  0  0  0  0  0  0  0  0  0
   10.0182   -2.0347   24.1340 C   0  0  1  0  0  0  0  0  0  0  0  0
   11.3356   -1.3054   23.9917 C   0  0  0  0  0  0  0  0  0  0  0  0
   11.3875    0.0497   24.3375 C   0  0  0  0  0  0  0  0  0  0  0  0
   12.5877    0.7579   24.2875 C   0  0  0  0  0  0  0  0  0  0  0  0
   13.7405    0.1307   23.8285 C   0  0  0  0  0  0  0  0  0  0  0  0
   13.7149   -1.2319   23.5101 C   0  0  0  0  0  0  0  0  0  0  0  0
   12.5135   -1.9538   23.5678 C   0  0  0  0  0  0  0  0  0  0  0  0
   12.5154   -3.6325   23.0753 Cl  0  0  0  0  0  0  0  0  0  0  0  0
    8.7299   -1.1752   24.1489 C   0  0  0  0  0  0  0  0  0  0  0  0
    7.7729   -1.1631   21.7394 C   0  0  0  0  0  0  0  0  0  0  0  0
    8.4850   -0.3258   21.2245 O   0  0  0  0  0  0  0  0  0  0  0  0
    6.4854   -1.4793   21.3559 N   0  0  0  0  0  0  0  0  0  0  0  0
    5.7652   -0.9687   20.2315 C   0  0  0  0  0  0  0  0  0  0  0  0
    6.1925   -1.1948   18.8967 C   0  0  0  0  0  0  0  0  0  0  0  0
    5.5945   -0.6855   17.7990 N   0  0  0  0  0  0  0  0  0  0  0  0
    4.5237    0.1068   18.0020 C   0  0  0  0  0  0  0  0  0  0  0  0
    4.0087    0.4012   19.2703 C   0  0  0  0  0  0  0  0  0  0  0  0
    2.9082    1.2645   19.4132 C   0  0  0  0  0  0  0  0  0  0  0  0
    2.4165    1.5731   20.6827 C   0  0  0  0  0  0  0  0  0  0  0  0
    3.0145    1.0201   21.8165 C   0  0  0  0  0  0  0  0  0  0  0  0
    4.1094    0.1574   21.6755 C   0  0  0  0  0  0  0  0  0  0  0  0
    4.6236   -0.1581   20.4076 C   0  0  0  0  0  0  0  0  0  0  0  0
  1  2  2  0
  2  3  1  0
  4  3  1  0
  4  5  1  6
  5  6  1  0
  6  7  1  6
  7  8  2  0
  8  9  1  0
  9 10  2  0
 10 11  1  0
 11 12  2  0
 12 13  1  0
  6 14  1  0
  4 15  1  0
 15 16  2  0
 15 17  1  0
 17 18  1  0
 18 19  2  0
 19 20  1  0
 20 21  2  0
 21 22  1  0
 22 23  2  0
 23 24  1  0
 24 25  2  0
 25 26  1  0
 26 27  2  0
 17  2  1  0
 27 18  1  0
 14  4  1  0
 27 22  1  0
 12  7  1  0
M  END
$$$$

     RDKit          3D

 33 37  0  0  0  0  0  0  0  0999 V2000
    8.0500   -1.4858   24.2326 C   0  0  0  0  0  0  0  0  0  0  0  0
    8.1110   -1.0611   22.7715 C   0  0  1  0  0  0  0  0  0  0  0  0
    6.8061   -1.2838   21.9991 C   0  0  0  0  0  0  0  0  0  0  0  0
    6.8789   -0.2885   20.9474 N   0  0  0  0  0  0  0  0  0  0  0  0
    5.9003   -0.1486   19.9342 C   0  0  0  0  0  0  0  0  0  0  0  0
    6.0921   -0.7662   18.7281 C   0  0  0  0  0  0  0  0  0  0  0  0
    5.2662   -0.6377   17.6630 N   0  0  0  0  0  0  0  0  0  0  0  0
    4.2072    0.1180   17.8263 C   0  0  0  0  0  0  0  0  0  0  0  0
    3.8707    0.7857   19.0386 C   0  0  0  0  0  0  0  0  0  0  0  0
    2.7066    1.5892   19.1572 C   0  0  0  0  0  0  0  0  0  0  0  0
    2.3848    2.1778   20.3468 C   0  0  0  0  0  0  0  0  0  0  0  0
    3.2235    2.0112   21.4703 C   0  0  0  0  0  0  0  0  0  0  0  0
    4.3706    1.2583   21.3786 C   0  0  0  0  0  0  0  0  0  0  0  0
    4.7296    0.6365   20.1472 C   0  0  0  0  0  0  0  0  0  0  0  0
    7.7705    0.7307   21.1949 C   0  0  0  0  0  0  0  0  0  0  0  0
    7.8825    1.7184   20.4892 O   0  0  0  0  0  0  0  0  0  0  0  0
    8.5282    0.4125   22.4995 C   0  0  1  0  0  0  0  0  0  0  0  0
    8.0389    1.3693   23.6209 C   0  0  0  0  0  0  0  0  0  0  0  0
    8.4540    2.7410   23.3716 N   0  0  0  0  0  0  0  0  0  0  0  0
    7.5430    3.7933   23.8121 C   0  0  0  0  0  0  0  0  0  0  0  0
    6.2973    3.8727   22.9123 C   0  0  0  0  0  0  0  0  0  0  0  0
    6.1938    5.2116   22.2201 N   0  0  0  0  0  0  0  0  0  0  0  0
    7.3550    5.4141   21.3103 C   0  0  0  0  0  0  0  0  0  0  0  0
    4.9650    5.4165   21.4123 C   0  0  0  0  0  0  0  0  0  0  0  0
    9.7502    3.0302   23.0374 C   0  0  0  0  0  0  0  0  0  0  0  0
   10.2304    4.1550   23.1328 O   0  0  0  0  0  0  0  0  0  0  0  0
   10.5945    1.8647   22.5714 C   0  0  0  0  0  0  0  0  0  0  0  0
   11.9810    2.0311   22.4585 C   0  0  0  0  0  0  0  0  0  0  0  0
   12.7830    0.9844   22.0446 C   0  0  0  0  0  0  0  0  0  0  0  0
   12.1953   -0.2352   21.7215 C   0  0  0  0  0  0  0  0  0  0  0  0
   13.2086   -1.5497   21.1924 Cl  0  0  0  0  0  0  0  0  0  0  0  0
   10.8279   -0.4140   21.8010 C   0  0  0  0  0  0  0  0  0  0  0  0
   10.0179    0.6150   22.3047 C   0  0  0  0  0  0  0  0  0  0  0  0
  2  1  1  1
  2  3  1  0
  3  4  1  0
  4  5  1  0
  5  6  2  0
  6  7  1  0
  7  8  2  0
  8  9  1  0
  9 10  2  0
 10 11  1  0
 11 12  2  0
 12 13  1  0
 13 14  2  0
  4 15  1  0
 15 16  2  0
 15 17  1  0
 17 18  1  1
 18 19  1  0
 19 20  1  0
 20 21  1  0
 21 22  1  0
 22 23  1  0
 22 24  1  0
 19 25  1  0
 25 26  2  0
 25 27  1  0
 27 28  2  0
 28 29  1  0
 29 30  2  0
 30 31  1  0
 30 32  1  0
 32 33  2  0
 17  2  1  0
 33 27  1  0
 14  5  1  0
 33 17  1  0
 14  9  1  0
M  CHG  1  22   1
M  END
>  <cnnaffinities>  (152) 
[6.05534, 6.23553, 6.22669, 5.83887, 6.03116]

>  <score>  (152) 
6.05534

>  <index>  (152) 
76

>  <Smiles>  (152) 
C([C@]1(C(N(c2c(nc(c3c(c(c(c(c23)[H])[H])[H])[H])[H])[H])C(=O)[C@]21C(N(C(C([N+](C([H])([H])[H])(C([H])([H])[H])[H])([H])[H])([H])[H])C(=O)c1c(c(c(Cl)c(c21)[H])[H])[H])([H])[H])([H])[H])[H])([H])([H])[H]

>  <h>  (152) 
<NA>

>  <Training>  (152) 
True

>  <Success>  (152) 
True

>  <enamine_searched>  (152) 
False

>  <enamine_id>  (152) 
nan

$$$$

     RDKit          3D

 33 36  0  0  0  0  0  0  0  0999 V2000
   10.4093    7.2533   22.5322 C   0  0  0  0  0  0  0  0  0  0  0  0
   11.2027    6.0401   23.0663 C   0  0  0  0  0  0  0  0  0  0  0  0
   11.5736    6.2088   24.5541 C   0  0  0  0  0  0  0  0  0  0  0  0
   12.4494    6.0293   22.2768 C   0  0  0  0  0  0  0  0  0  0  0  0
   13.3945    6.1266   21.6176 N   0  0  0  0  0  0  0  0  0  0  0  0
   10.4062    4.7394   22.9195 C   0  0  0  0  0  0  0  0  0  0  0  0
   10.8975    3.6251   22.2344 C   0  0  0  0  0  0  0  0  0  0  0  0
   10.1346    2.4622   22.1675 C   0  0  0  0  0  0  0  0  0  0  0  0
    8.8875    2.4029   22.7826 C   0  0  0  0  0  0  0  0  0  0  0  0
    8.0618    1.2496   22.6536 N   0  0  0  0  0  0  0  0  0  0  0  0
    7.9127    0.3929   23.8247 C   0  0  0  0  0  0  0  0  0  0  0  0
    8.7207   -0.8725   23.6739 C   0  0  0  0  0  0  0  0  0  0  0  0
   10.0853   -0.7725   23.4047 C   0  0  0  0  0  0  0  0  0  0  0  0
   10.8543   -1.9186   23.2729 C   0  0  0  0  0  0  0  0  0  0  0  0
   10.2710   -3.1724   23.4068 C   0  0  0  0  0  0  0  0  0  0  0  0
    8.9015   -3.2692   23.5982 C   0  0  0  0  0  0  0  0  0  0  0  0
    8.1417   -4.8374   23.6721 Cl  0  0  0  0  0  0  0  0  0  0  0  0
    8.1217   -2.1271   23.7305 C   0  0  0  0  0  0  0  0  0  0  0  0
    7.7200    0.8812   21.3654 C   0  0  0  0  0  0  0  0  0  0  0  0
    8.1061    1.5138   20.3946 O   0  0  0  0  0  0  0  0  0  0  0  0
    6.8389   -0.3489   21.1515 C   0  0  0  0  0  0  0  0  0  0  0  0
    5.8936   -0.1621   20.0055 C   0  0  0  0  0  0  0  0  0  0  0  0
    6.1651   -0.7049   18.7777 C   0  0  0  0  0  0  0  0  0  0  0  0
    5.3942   -0.5589   17.6699 N   0  0  0  0  0  0  0  0  0  0  0  0
    4.3021    0.1550   17.8075 C   0  0  0  0  0  0  0  0  0  0  0  0
    3.8990    0.7901   19.0166 C   0  0  0  0  0  0  0  0  0  0  0  0
    2.7224    1.5785   19.1062 C   0  0  0  0  0  0  0  0  0  0  0  0
    2.3681    2.1622   20.2926 C   0  0  0  0  0  0  0  0  0  0  0  0
    3.1815    2.0023   21.4397 C   0  0  0  0  0  0  0  0  0  0  0  0
    4.3371    1.2647   21.3742 C   0  0  0  0  0  0  0  0  0  0  0  0
    4.7200    0.6317   20.1572 C   0  0  0  0  0  0  0  0  0  0  0  0
    8.4335    3.4795   23.5269 C   0  0  0  0  0  0  0  0  0  0  0  0
    9.1780    4.6430   23.5796 C   0  0  0  0  0  0  0  0  0  0  0  0
  1  2  1  0
  2  3  1  0
  2  4  1  0
  4  5  3  0
  2  6  1  0
  6  7  2  0
  7  8  1  0
  8  9  2  0
  9 10  1  0
 10 11  1  0
 11 12  1  0
 12 13  2  0
 13 14  1  0
 14 15  2  0
 15 16  1  0
 16 17  1  0
 16 18  2  0
 10 19  1  0
 19 20  2  0
 19 21  1  0
 21 22  1  0
 22 23  2  0
 23 24  1  0
 24 25  2  0
 25 26  1  0
 26 27  2  0
 27 28  1  0
 28 29  2  0
 29 30  1  0
 30 31  2  0
  9 32  1  0
 32 33  2  0
 33  6  1  0
 18 12  1  0
 31 22  1  0
 31 26  1  0
M  END
$$$$

     RDKit          3D

 40 45  0  0  0  0  0  0  0  0999 V2000
   -7.0232    3.6222  -22.4634 C   0  0  0  0  0  0  0  0  0  0  0  0
   -7.7403    2.6360  -23.2375 N   0  0  0  0  0  0  0  0  0  0  0  0
   -7.4736    2.5141  -24.5532 C   0  0  0  0  0  0  0  0  0  0  0  0
   -6.7128    3.2526  -25.1626 O   0  0  0  0  0  0  0  0  0  0  0  0
   -8.1595    1.3743  -25.3238 C   0  0  0  0  0  0  0  0  0  0  0  0
   -8.9745    0.4591  -24.5566 N   0  0  0  0  0  0  0  0  0  0  0  0
   -8.4956   -0.8904  -24.2835 C   0  0  0  0  0  0  0  0  0  0  0  0
   -9.0705   -1.4333  -22.9407 C   0  0  2  0  0  0  0  0  0  0  0  0
   -8.4600   -0.5777  -21.7933 C   0  0  0  0  0  0  0  0  0  0  0  0
   -8.7286    0.5750  -21.5117 O   0  0  0  0  0  0  0  0  0  0  0  0
   -7.4896   -1.3169  -21.1629 N   0  0  0  0  0  0  0  0  0  0  0  0
   -6.6538   -0.7997  -20.1313 C   0  0  0  0  0  0  0  0  0  0  0  0
   -6.8725   -1.1714  -18.8270 C   0  0  0  0  0  0  0  0  0  0  0  0
   -6.0957   -0.8011  -17.7796 N   0  0  0  0  0  0  0  0  0  0  0  0
   -5.0658   -0.0306  -18.0277 C   0  0  0  0  0  0  0  0  0  0  0  0
   -4.7367    0.4531  -19.3246 C   0  0  0  0  0  0  0  0  0  0  0  0
   -3.6466    1.3390  -19.5316 C   0  0  0  0  0  0  0  0  0  0  0  0
   -3.3219    1.7552  -20.7915 C   0  0  0  0  0  0  0  0  0  0  0  0
   -4.0586    1.2911  -21.9042 C   0  0  0  0  0  0  0  0  0  0  0  0
   -5.1374    0.4577  -21.7294 C   0  0  0  0  0  0  0  0  0  0  0  0
   -5.5251    0.0339  -20.4256 C   0  0  0  0  0  0  0  0  0  0  0  0
   -7.2262   -2.5853  -21.8201 C   0  0  0  0  0  0  0  0  0  0  0  0
   -8.5507   -2.8394  -22.5415 C   0  0  2  0  0  0  0  0  0  0  0  0
   -8.5085   -3.8644  -23.6830 C   0  0  0  0  0  0  0  0  0  0  0  0
   -8.2529   -5.2216  -23.2476 N   0  0  0  0  0  0  0  0  0  0  0  0
   -6.9737   -5.6947  -23.1597 C   0  0  0  0  0  0  0  0  0  0  0  0
   -6.6877   -6.8963  -22.4703 C   0  0  0  0  0  0  0  0  0  0  0  0
   -5.4637   -7.3732  -22.3483 N   0  0  0  0  0  0  0  0  0  0  0  0
   -4.4798   -6.6723  -22.9412 C   0  0  0  0  0  0  0  0  0  0  0  0
   -4.7643   -5.5178  -23.6524 C   0  0  0  0  0  0  0  0  0  0  0  0
   -6.0003   -5.0121  -23.7569 N   0  0  0  0  0  0  0  0  0  0  0  0
  -10.5807   -1.3167  -23.0468 C   0  0  0  0  0  0  0  0  0  0  0  0
  -11.4741   -2.2984  -22.5948 C   0  0  0  0  0  0  0  0  0  0  0  0
  -12.8309   -2.0285  -22.5596 C   0  0  0  0  0  0  0  0  0  0  0  0
  -13.9085   -3.1901  -21.8359 Cl  0  0  0  0  0  0  0  0  0  0  0  0
  -13.3583   -0.8348  -23.0519 C   0  0  0  0  0  0  0  0  0  0  0  0
  -12.4915    0.1028  -23.5744 C   0  0  0  0  0  0  0  0  0  0  0  0
  -11.1208   -0.1460  -23.5974 C   0  0  0  0  0  0  0  0  0  0  0  0
  -10.2391    0.8749  -24.2428 C   0  0  0  0  0  0  0  0  0  0  0  0
  -10.6278    2.0106  -24.4737 O   0  0  0  0  0  0  0  0  0  0  0  0
  1  2  1  0
  2  3  1  0
  3  4  2  0
  3  5  1  0
  5  6  1  0
  6  7  1  0
  8  7  1  6
  8  9  1  0
  9 10  2  0
  9 11  1  0
 11 12  1  0
 12 13  2  0
 13 14  1  0
 14 15  2  0
 15 16  1  0
 16 17  2  0
 17 18  1  0
 18 19  2  0
 19 20  1  0
 20 21  2  0
 11 22  1  0
 22 23  1  0
 23 24  1  6
 24 25  1  0
 25 26  1  0
 26 27  2  0
 27 28  1  0
 28 29  2  0
 29 30  1  0
 30 31  2  0
  8 32  1  0
 32 33  2  0
 33 34  1  0
 34 35  1  0
 34 36  2  0
 36 37  1  0
 37 38  2  0
 38 39  1  0
 39 40  2  0
 39  6  1  0
 23  8  1  0
 31 26  1  0
 38 32  1  0
 21 12  1  0
 21 16  1  0
M  END
$$$$

     RDKit          3D

 34 35  0  0  0  0  0  0  0  0999 V2000
    4.0580   -3.9177   28.1056 C   0  0  0  0  0  0  0  0  0  0  0  0
    3.9155   -2.5089   27.9164 O   0  0  0  0  0  0  0  0  0  0  0  0
    3.9557   -2.1309   26.6230 C   0  0  0  0  0  0  0  0  0  0  0  0
    4.0954   -2.9055   25.6990 O   0  0  0  0  0  0  0  0  0  0  0  0
    3.8038   -0.7617   26.5142 N   0  0  0  0  0  0  0  0  0  0  0  0
    4.1505   -0.2056   25.2100 C   0  0  2  0  0  0  0  0  0  0  0  0
    5.6568    0.1150   25.2723 C   0  0  0  0  0  0  0  0  0  0  0  0
    6.1324    0.7237   26.2213 O   0  0  0  0  0  0  0  0  0  0  0  0
    6.4583   -0.3203   24.2553 N   0  0  0  0  0  0  0  0  0  0  0  0
    6.0444   -1.1124   23.1077 C   0  0  0  0  0  0  0  0  0  0  0  0
    7.2139   -0.9513   22.1373 C   0  0  2  0  0  0  0  0  0  0  0  0
    7.3444   -2.0907   21.1678 C   0  0  0  0  0  0  0  0  0  0  0  0
    7.5043   -3.2788   21.7922 F   0  0  0  0  0  0  0  0  0  0  0  0
    6.2478   -2.1910   20.3913 F   0  0  0  0  0  0  0  0  0  0  0  0
    8.4022   -1.8935   20.3579 F   0  0  0  0  0  0  0  0  0  0  0  0
    8.4369   -0.7311   23.0364 C   0  0  0  0  0  0  0  0  0  0  0  0
    7.8727    0.0712   24.2410 C   0  0  1  0  0  0  0  0  0  0  0  0
    8.0124    1.5871   24.0865 C   0  0  0  0  0  0  0  0  0  0  0  0
    8.8732    2.2517   24.6654 O   0  0  0  0  0  0  0  0  0  0  0  0
    7.1726    2.1166   23.1737 N   0  0  0  0  0  0  0  0  0  0  0  0
    7.0527    3.5306   22.8493 C   0  0  2  0  0  0  0  0  0  0  0  0
    8.1802    3.9038   21.8709 C   0  0  0  0  0  0  0  0  0  0  0  0
    9.5288    3.4057   22.3077 N   0  0  0  0  0  0  0  0  0  0  0  0
    6.9645    4.4252   24.1055 C   0  0  0  0  0  0  0  0  0  0  0  0
    6.0589    5.6552   23.9606 C   0  0  2  0  0  0  0  0  0  0  0  0
    4.6023    5.3517   23.5525 C   0  0  0  0  0  0  0  0  0  0  0  0
    4.4004    5.9856   22.1549 C   0  0  0  0  0  0  0  0  0  0  0  0
    5.6032    6.7720   21.9589 N   0  0  0  0  0  0  0  0  0  0  0  0
    6.5808    6.6117   22.8921 C   0  0  0  0  0  0  0  0  0  0  0  0
    7.6767    7.1421   22.8859 O   0  0  0  0  0  0  0  0  0  0  0  0
    3.2642    1.0157   24.8015 C   0  0  0  0  0  0  0  0  0  0  0  0
    1.7929    0.6060   24.9694 C   0  0  0  0  0  0  0  0  0  0  0  0
    3.5662    2.2396   25.6773 C   0  0  0  0  0  0  0  0  0  0  0  0
    3.4833    1.3880   23.3227 C   0  0  0  0  0  0  0  0  0  0  0  0
  1  2  1  0
  2  3  1  0
  3  4  2  0
  3  5  1  0
  6  5  1  1
  6  7  1  0
  7  8  2  0
  7  9  1  0
  9 10  1  0
 10 11  1  0
 11 12  1  1
 12 13  1  0
 12 14  1  0
 12 15  1  0
 11 16  1  0
 16 17  1  0
 17 18  1  6
 18 19  2  0
 18 20  1  0
 20 21  1  0
 21 22  1  1
 22 23  1  0
 21 24  1  0
 25 24  1  6
 25 26  1  0
 26 27  1  0
 27 28  1  0
 28 29  1  0
 29 30  2  0
  6 31  1  0
 31 32  1  0
 31 33  1  0
 31 34  1  0
 17  9  1  0
 29 25  1  0
M  CHG  1  23   1
M  END
$$$$

     RDKit          3D

 36 41  0  0  0  0  0  0  0  0999 V2000
   -8.4219   -3.8242  -23.7076 C   0  0  0  0  0  0  0  0  0  0  0  0
   -8.5257   -2.8279  -22.5607 C   0  0  1  0  0  0  0  0  0  0  0  0
   -7.2192   -2.5708  -21.8041 C   0  0  0  0  0  0  0  0  0  0  0  0
   -7.5040   -1.3225  -21.1333 N   0  0  0  0  0  0  0  0  0  0  0  0
   -6.6504   -0.8135  -20.1229 C   0  0  0  0  0  0  0  0  0  0  0  0
   -6.8719   -1.1705  -18.8166 C   0  0  0  0  0  0  0  0  0  0  0  0
   -6.1006   -0.7816  -17.7725 N   0  0  0  0  0  0  0  0  0  0  0  0
   -5.0767   -0.0042  -18.0219 C   0  0  0  0  0  0  0  0  0  0  0  0
   -4.7512    0.4640  -19.3269 C   0  0  0  0  0  0  0  0  0  0  0  0
   -3.6675    1.3537  -19.5388 C   0  0  0  0  0  0  0  0  0  0  0  0
   -3.3361    1.7650  -20.7985 C   0  0  0  0  0  0  0  0  0  0  0  0
   -4.0766    1.3015  -21.9072 C   0  0  0  0  0  0  0  0  0  0  0  0
   -5.1562    0.4692  -21.7279 C   0  0  0  0  0  0  0  0  0  0  0  0
   -5.5318    0.0312  -20.4241 C   0  0  0  0  0  0  0  0  0  0  0  0
   -8.4529   -0.5659  -21.7914 C   0  0  0  0  0  0  0  0  0  0  0  0
   -8.7335    0.5797  -21.5153 O   0  0  0  0  0  0  0  0  0  0  0  0
   -9.0580   -1.4220  -22.9342 C   0  0  1  0  0  0  0  0  0  0  0  0
   -8.5073   -0.8863  -24.2760 C   0  0  0  0  0  0  0  0  0  0  0  0
   -8.9748    0.4713  -24.5393 N   0  0  0  0  0  0  0  0  0  0  0  0
   -8.1257    1.3370  -25.3404 C   0  0  0  0  0  0  0  0  0  0  0  0
   -7.4209    2.4581  -24.5718 C   0  0  0  0  0  0  0  0  0  0  0  0
   -8.3387    3.5926  -24.2034 N   0  0  0  0  0  0  0  0  0  0  0  0
   -7.6750    4.5973  -23.3056 C   0  0  0  0  0  0  0  0  0  0  0  0
   -6.7594    5.5311  -24.1069 C   0  0  0  0  0  0  0  0  0  0  0  0
   -7.4580    6.2087  -25.1331 O   0  0  0  0  0  0  0  0  0  0  0  0
   -8.0401    5.2942  -26.0375 C   0  0  0  0  0  0  0  0  0  0  0  0
   -8.9986    4.3567  -25.3280 C   0  0  0  0  0  0  0  0  0  0  0  0
  -10.2069    0.8996  -24.1686 C   0  0  0  0  0  0  0  0  0  0  0  0
  -10.5683    2.0830  -24.2534 O   0  0  0  0  0  0  0  0  0  0  0  0
  -11.1125   -0.1423  -23.6011 C   0  0  0  0  0  0  0  0  0  0  0  0
  -12.4837    0.1092  -23.5945 C   0  0  0  0  0  0  0  0  0  0  0  0
  -13.3568   -0.8150  -23.0519 C   0  0  0  0  0  0  0  0  0  0  0  0
  -12.8233   -1.9958  -22.5330 C   0  0  0  0  0  0  0  0  0  0  0  0
  -13.8721   -3.1440  -21.7415 Cl  0  0  0  0  0  0  0  0  0  0  0  0
  -11.4675   -2.2745  -22.5728 C   0  0  0  0  0  0  0  0  0  0  0  0
  -10.5704   -1.3086  -23.0411 C   0  0  0  0  0  0  0  0  0  0  0  0
  2  1  1  6
  2  3  1  0
  3  4  1  0
  4  5  1  0
  5  6  2  0
  6  7  1  0
  7  8  2  0
  8  9  1  0
  9 10  2  0
 10 11  1  0
 11 12  2  0
 12 13  1  0
 13 14  2  0
  4 15  1  0
 15 16  2  0
 15 17  1  0
 17 18  1  6
 18 19  1  0
 19 20  1  0
 20 21  1  0
 21 22  1  0
 22 23  1  0
 23 24  1  0
 24 25  1  0
 25 26  1  0
 26 27  1  0
 19 28  1  0
 28 29  2  0
 28 30  1  0
 30 31  2  0
 31 32  1  0
 32 33  2  0
 33 34  1  0
 33 35  1  0
 35 36  2  0
 17  2  1  0
 27 22  1  0
 36 30  1  0
 14  5  1  0
 36 17  1  0
 14  9  1  0
M  CHG  1  22   1
M  END
$$$$

     RDKit          3D

 34 39  0  0  0  0  0  0  0  0999 V2000
   -8.4218   -3.8295  -23.7059 C   0  0  0  0  0  0  0  0  0  0  0  0
   -8.5276   -2.8355  -22.5584 C   0  0  1  0  0  0  0  0  0  0  0  0
   -7.2183   -2.5691  -21.8066 C   0  0  0  0  0  0  0  0  0  0  0  0
   -7.4965   -1.3129  -21.1498 N   0  0  0  0  0  0  0  0  0  0  0  0
   -6.6533   -0.8053  -20.1304 C   0  0  0  0  0  0  0  0  0  0  0  0
   -6.8770   -1.1633  -18.8222 C   0  0  0  0  0  0  0  0  0  0  0  0
   -6.1104   -0.7719  -17.7755 N   0  0  0  0  0  0  0  0  0  0  0  0
   -5.0838    0.0076  -18.0174 C   0  0  0  0  0  0  0  0  0  0  0  0
   -4.7545    0.4739  -19.3231 C   0  0  0  0  0  0  0  0  0  0  0  0
   -3.6674    1.3607  -19.5364 C   0  0  0  0  0  0  0  0  0  0  0  0
   -3.3245    1.7582  -20.7975 C   0  0  0  0  0  0  0  0  0  0  0  0
   -4.0485    1.2688  -21.9057 C   0  0  0  0  0  0  0  0  0  0  0  0
   -5.1393    0.4525  -21.7268 C   0  0  0  0  0  0  0  0  0  0  0  0
   -5.5276    0.0347  -20.4221 C   0  0  0  0  0  0  0  0  0  0  0  0
   -8.4812   -0.5812  -21.7836 C   0  0  0  0  0  0  0  0  0  0  0  0
   -8.8214    0.5351  -21.4691 O   0  0  0  0  0  0  0  0  0  0  0  0
   -9.0660   -1.4329  -22.9391 C   0  0  1  0  0  0  0  0  0  0  0  0
   -8.4998   -0.9202  -24.2870 C   0  0  0  0  0  0  0  0  0  0  0  0
   -8.9944    0.4092  -24.6157 N   0  0  0  0  0  0  0  0  0  0  0  0
   -8.1297    1.3263  -25.3193 C   0  0  0  0  0  0  0  0  0  0  0  0
   -7.3838    2.2926  -24.4342 C   0  0  0  0  0  0  0  0  0  0  0  0
   -7.8115    2.9725  -23.3402 C   0  0  0  0  0  0  0  0  0  0  0  0
   -6.7930    3.7821  -22.9292 O   0  0  0  0  0  0  0  0  0  0  0  0
   -5.7896    3.5292  -23.7863 C   0  0  0  0  0  0  0  0  0  0  0  0
   -6.0661    2.6530  -24.6946 N   0  0  0  0  0  0  0  0  0  0  0  0
  -10.2252    0.8689  -24.2528 C   0  0  0  0  0  0  0  0  0  0  0  0
  -10.5707    2.0368  -24.4174 O   0  0  0  0  0  0  0  0  0  0  0  0
  -11.1209   -0.1493  -23.6315 C   0  0  0  0  0  0  0  0  0  0  0  0
  -12.4902    0.1198  -23.6006 C   0  0  0  0  0  0  0  0  0  0  0  0
  -13.3621   -0.7938  -23.0401 C   0  0  0  0  0  0  0  0  0  0  0  0
  -12.8286   -1.9682  -22.5226 C   0  0  0  0  0  0  0  0  0  0  0  0
  -13.6607   -2.8616  -21.9571 F   0  0  0  0  0  0  0  0  0  0  0  0
  -11.4778   -2.2589  -22.5540 C   0  0  0  0  0  0  0  0  0  0  0  0
  -10.5804   -1.3075  -23.0495 C   0  0  0  0  0  0  0  0  0  0  0  0
  2  1  1  6
  2  3  1  0
  3  4  1  0
  4  5  1  0
  5  6  2  0
  6  7  1  0
  7  8  2  0
  8  9  1  0
  9 10  2  0
 10 11  1  0
 11 12  2  0
 12 13  1  0
 13 14  2  0
  4 15  1  0
 15 16  2  0
 15 17  1  0
 17 18  1  6
 18 19  1  0
 19 20  1  0
 20 21  1  0
 21 22  2  0
 22 23  1  0
 23 24  1  0
 24 25  2  0
 19 26  1  0
 26 27  2  0
 26 28  1  0
 28 29  2  0
 29 30  1  0
 30 31  2  0
 31 32  1  0
 31 33  1  0
 33 34  2  0
 17  2  1  0
 25 21  1  0
 34 28  1  0
 14  5  1  0
 34 17  1  0
 14  9  1  0
M  END
$$$$

     RDKit          3D

 20 22  0  0  0  0  0  0  0  0999 V2000
    9.6614   -3.8892   26.0209 C   0  0  0  0  0  0  0  0  0  0  0  0
    9.1521   -3.5494   24.6216 C   0  0  0  0  0  0  0  0  0  0  0  0
    9.2868   -2.0642   24.3126 C   0  0  0  0  0  0  0  0  0  0  0  0
    8.7659   -1.7127   22.9219 C   0  0  0  0  0  0  0  0  0  0  0  0
    7.4077   -2.1946   22.7289 N   0  0  0  0  0  0  0  0  0  0  0  0
    6.4295   -1.5144   22.0309 C   0  0  0  0  0  0  0  0  0  0  0  0
    5.2512   -1.7943   22.1423 O   0  0  0  0  0  0  0  0  0  0  0  0
    6.8744   -0.3998   21.0564 C   0  0  0  0  0  0  0  0  0  0  0  0
    5.8660   -0.1879   19.9559 C   0  0  0  0  0  0  0  0  0  0  0  0
    6.0387   -0.8105   18.7495 C   0  0  0  0  0  0  0  0  0  0  0  0
    5.2303   -0.6794   17.6664 N   0  0  0  0  0  0  0  0  0  0  0  0
    4.1690    0.0775   17.8051 C   0  0  0  0  0  0  0  0  0  0  0  0
    3.8202    0.7303   19.0179 C   0  0  0  0  0  0  0  0  0  0  0  0
    2.6272    1.4844   19.1483 C   0  0  0  0  0  0  0  0  0  0  0  0
    2.3022    2.0949   20.3274 C   0  0  0  0  0  0  0  0  0  0  0  0
    3.1828    2.0021   21.4261 C   0  0  0  0  0  0  0  0  0  0  0  0
    4.3509    1.2865   21.3243 C   0  0  0  0  0  0  0  0  0  0  0  0
    4.6966    0.6125   20.1231 C   0  0  0  0  0  0  0  0  0  0  0  0
    7.1819   -3.6008   23.0504 C   0  0  0  0  0  0  0  0  0  0  0  0
    7.6950   -3.9547   24.4373 C   0  0  0  0  0  0  0  0  0  0  0  0
  1  2  1  0
  2  3  1  0
  3  4  1  0
  4  5  1  0
  5  6  1  0
  6  7  2  0
  6  8  1  0
  8  9  1  0
  9 10  2  0
 10 11  1  0
 11 12  2  0
 12 13  1  0
 13 14  2  0
 14 15  1  0
 15 16  2  0
 16 17  1  0
 17 18  2  0
  5 19  1  0
 19 20  1  0
 20  2  1  0
 18  9  1  0
 18 13  1  0
M  END
$$$$

     RDKit          3D

 35 40  0  0  0  0  0  0  0  0999 V2000
   -8.2509   -3.9938  -23.7248 C   0  0  0  0  0  0  0  0  0  0  0  0
   -8.4515   -3.1554  -22.4664 C   0  0  1  0  0  0  0  0  0  0  0  0
   -7.1145   -2.5357  -22.0073 C   0  0  0  0  0  0  0  0  0  0  0  0
   -7.5242   -1.3860  -21.2268 N   0  0  0  0  0  0  0  0  0  0  0  0
   -6.7310   -0.8091  -20.1986 C   0  0  0  0  0  0  0  0  0  0  0  0
   -7.0345   -1.0526  -18.8787 C   0  0  0  0  0  0  0  0  0  0  0  0
   -6.3136   -0.5941  -17.8230 N   0  0  0  0  0  0  0  0  0  0  0  0
   -5.2616    0.1446  -18.0820 C   0  0  0  0  0  0  0  0  0  0  0  0
   -4.8202    0.4701  -19.3941 C   0  0  0  0  0  0  0  0  0  0  0  0
   -3.6828    1.2927  -19.6142 C   0  0  0  0  0  0  0  0  0  0  0  0
   -3.2719    1.5867  -20.8842 C   0  0  0  0  0  0  0  0  0  0  0  0
   -3.9709    1.0475  -21.9890 C   0  0  0  0  0  0  0  0  0  0  0  0
   -5.0745    0.2474  -21.8012 C   0  0  0  0  0  0  0  0  0  0  0  0
   -5.5511   -0.0427  -20.4950 C   0  0  0  0  0  0  0  0  0  0  0  0
   -8.8317   -1.0148  -21.4689 C   0  0  0  0  0  0  0  0  0  0  0  0
   -9.3951   -0.0964  -20.9119 O   0  0  0  0  0  0  0  0  0  0  0  0
   -9.4324   -1.9380  -22.5729 C   0  0  1  0  0  0  0  0  0  0  0  0
   -9.2707   -1.2373  -23.9570 C   0  0  0  0  0  0  0  0  0  0  0  0
  -10.1240   -0.0750  -24.1199 N   0  0  0  0  0  0  0  0  0  0  0  0
   -9.6028    1.1393  -24.7345 C   0  0  0  0  0  0  0  0  0  0  0  0
   -8.7447    1.9107  -23.7922 C   0  0  0  0  0  0  0  0  0  0  0  0
   -9.1210    2.4952  -22.6106 C   0  0  0  0  0  0  0  0  0  0  0  0
   -7.9965    3.2337  -22.2065 C   0  0  0  0  0  0  0  0  0  0  0  0
   -6.9841    3.0851  -23.0528 N   0  0  0  0  0  0  0  0  0  0  0  0
   -7.4552    2.2690  -24.0125 N   0  0  0  0  0  0  0  0  0  0  0  0
   -6.5667    1.7561  -25.0336 C   0  0  0  0  0  0  0  0  0  0  0  0
  -11.4306   -0.0893  -23.7168 C   0  0  0  0  0  0  0  0  0  0  0  0
  -12.2231    0.7954  -24.0116 O   0  0  0  0  0  0  0  0  0  0  0  0
  -11.8596   -1.2477  -22.8689 C   0  0  0  0  0  0  0  0  0  0  0  0
  -13.2231   -1.3354  -22.5786 C   0  0  0  0  0  0  0  0  0  0  0  0
  -13.7026   -2.2901  -21.7117 C   0  0  0  0  0  0  0  0  0  0  0  0
  -12.7886   -3.2179  -21.2254 C   0  0  0  0  0  0  0  0  0  0  0  0
  -13.2500   -4.0984  -20.3231 F   0  0  0  0  0  0  0  0  0  0  0  0
  -11.4444   -3.2223  -21.5809 C   0  0  0  0  0  0  0  0  0  0  0  0
  -10.9314   -2.1757  -22.3581 C   0  0  0  0  0  0  0  0  0  0  0  0
  2  1  1  6
  2  3  1  0
  3  4  1  0
  4  5  1  0
  5  6  2  0
  6  7  1  0
  7  8  2  0
  8  9  1  0
  9 10  2  0
 10 11  1  0
 11 12  2  0
 12 13  1  0
 13 14  2  0
  4 15  1  0
 15 16  2  0
 15 17  1  0
 17 18  1  6
 18 19  1  0
 19 20  1  0
 20 21  1  0
 21 22  2  0
 22 23  1  0
 23 24  2  0
 24 25  1  0
 25 26  1  0
 19 27  1  0
 27 28  2  0
 27 29  1  0
 29 30  2  0
 30 31  1  0
 31 32  2  0
 32 33  1  0
 32 34  1  0
 34 35  2  0
 17  2  1  0
 25 21  1  0
 35 29  1  0
 14  5  1  0
 35 17  1  0
 14  9  1  0
M  END
>  <cnnaffinities>  (159) 
[6.67017, 6.41286, 6.50327]

>  <score>  (159) 
6.67017

>  <index>  (159) 
87

>  <Smiles>  (159) 
C([C@]1(C(N(c2c(nc(c3c(c(c(c(c23)[H])[H])[H])[H])[H])[H])C(=O)[C@]21C(N(C(c1c(c(nn1C([H])([H])[H])[H])[H])([H])[H])C(=O)c1c(c(c(F)c(c21)[H])[H])[H])([H])[H])([H])[H])[H])([H])([H])[H]

>  <h>  (159) 
<NA>

>  <Training>  (159) 
True

>  <Success>  (159) 
True

>  <enamine_searched>  (159) 
False

>  <enamine_id>  (159) 
nan

$$$$

     RDKit          3D

 35 40  0  0  0  0  0  0  0  0999 V2000
    4.8150    4.7883   20.5126 C   0  0  0  0  0  0  0  0  0  0  0  0
    5.9626    4.7195   21.4574 C   0  0  0  0  0  0  0  0  0  0  0  0
    6.1736    4.0177   22.5294 N   0  0  0  0  0  0  0  0  0  0  0  0
    7.4506    4.4019   22.9439 C   0  0  0  0  0  0  0  0  0  0  0  0
    8.1340    3.7568   24.1054 C   0  0  0  0  0  0  0  0  0  0  0  0
    8.8566    2.5458   23.7100 N   0  0  0  0  0  0  0  0  0  0  0  0
    8.2280    1.2394   23.8570 C   0  0  0  0  0  0  0  0  0  0  0  0
    8.4709    0.2881   22.6439 C   0  0  2  0  0  0  0  0  0  0  0  0
    7.6734    0.7384   21.3964 C   0  0  0  0  0  0  0  0  0  0  0  0
    7.8028    1.7685   20.7756 O   0  0  0  0  0  0  0  0  0  0  0  0
    6.8124   -0.2786   21.0435 N   0  0  0  0  0  0  0  0  0  0  0  0
    5.8936   -0.1253   19.9814 C   0  0  0  0  0  0  0  0  0  0  0  0
    6.0887   -0.7631   18.7836 C   0  0  0  0  0  0  0  0  0  0  0  0
    5.2881   -0.6236   17.7024 N   0  0  0  0  0  0  0  0  0  0  0  0
    4.2312    0.1455   17.8346 C   0  0  0  0  0  0  0  0  0  0  0  0
    3.8800    0.8212   19.0375 C   0  0  0  0  0  0  0  0  0  0  0  0
    2.6978    1.6002   19.1498 C   0  0  0  0  0  0  0  0  0  0  0  0
    2.3507    2.1696   20.3451 C   0  0  0  0  0  0  0  0  0  0  0  0
    3.1927    2.0275   21.4701 C   0  0  0  0  0  0  0  0  0  0  0  0
    4.3617    1.3140   21.3771 C   0  0  0  0  0  0  0  0  0  0  0  0
    4.7300    0.6828   20.1563 C   0  0  0  0  0  0  0  0  0  0  0  0
    7.1434   -1.5482   21.6483 C   0  0  0  0  0  0  0  0  0  0  0  0
    7.9244   -1.1577   22.9225 C   0  0  2  0  0  0  0  0  0  0  0  0
    7.0611   -1.3304   24.1834 C   0  0  0  0  0  0  0  0  0  0  0  0
    9.9559    0.3337   22.2926 C   0  0  0  0  0  0  0  0  0  0  0  0
   10.6082   -0.7700   21.7281 C   0  0  0  0  0  0  0  0  0  0  0  0
   11.9740   -0.7332   21.5292 C   0  0  0  0  0  0  0  0  0  0  0  0
   12.5917   -1.8401   21.0717 F   0  0  0  0  0  0  0  0  0  0  0  0
   12.7287    0.3991   21.7998 C   0  0  0  0  0  0  0  0  0  0  0  0
   12.0759    1.5248   22.2592 C   0  0  0  0  0  0  0  0  0  0  0  0
   10.7037    1.4980   22.5265 C   0  0  0  0  0  0  0  0  0  0  0  0
   10.0733    2.7270   23.1093 C   0  0  0  0  0  0  0  0  0  0  0  0
   10.6298    3.8192   23.0752 O   0  0  0  0  0  0  0  0  0  0  0  0
    7.9327    5.3305   22.0925 C   0  0  0  0  0  0  0  0  0  0  0  0
    6.9921    5.5478   21.1362 O   0  0  0  0  0  0  0  0  0  0  0  0
  1  2  1  0
  2  3  2  0
  3  4  1  0
  4  5  1  0
  5  6  1  0
  6  7  1  0
  8  7  1  1
  8  9  1  0
  9 10  2  0
  9 11  1  0
 11 12  1  0
 12 13  2  0
 13 14  1  0
 14 15  2  0
 15 16  1  0
 16 17  2  0
 17 18  1  0
 18 19  2  0
 19 20  1  0
 20 21  2  0
 11 22  1  0
 22 23  1  0
 23 24  1  1
  8 25  1  0
 25 26  2  0
 26 27  1  0
 27 28  1  0
 27 29  2  0
 29 30  1  0
 30 31  2  0
 31 32  1  0
 32 33  2  0
  4 34  2  0
 34 35  1  0
 35  2  1  0
 32  6  1  0
 23  8  1  0
 31 25  1  0
 21 12  1  0
 21 16  1  0
M  END
>  <cnnaffinities>  (160) 
[6.18525, 6.07397]

>  <score>  (160) 
6.18525

>  <index>  (160) 
81

>  <Smiles>  (160) 
C(c1nc(C(N2C([C@@]3(C(=O)N(c4c(nc(c5c(c(c(c(c45)[H])[H])[H])[H])[H])[H])C([C@@]3(C([H])([H])[H])[H])([H])[H])c3c(c(F)c(c(c3C2=O)[H])[H])[H])([H])[H])([H])[H])c(o1)[H])([H])([H])[H]

>  <h>  (160) 
<NA>

>  <Training>  (160) 
True

>  <Success>  (160) 
True

>  <enamine_searched>  (160) 
False

>  <enamine_id>  (160) 
nan

$$$$

     RDKit          3D

 33 37  0  0  0  0  0  0  0  0999 V2000
   -7.0110    3.6340  -22.4916 C   0  0  0  0  0  0  0  0  0  0  0  0
   -7.8012    2.6979  -23.2672 N   0  0  0  0  0  0  0  0  0  0  0  0
   -7.5114    2.5257  -24.5754 C   0  0  0  0  0  0  0  0  0  0  0  0
   -6.7344    3.2310  -25.2038 O   0  0  0  0  0  0  0  0  0  0  0  0
   -8.1575    1.3533  -25.3168 C   0  0  0  0  0  0  0  0  0  0  0  0
   -8.9901    0.4556  -24.5597 N   0  0  0  0  0  0  0  0  0  0  0  0
   -8.5122   -0.8894  -24.2735 C   0  0  0  0  0  0  0  0  0  0  0  0
   -9.0702   -1.4209  -22.9330 C   0  0  2  0  0  0  0  0  0  0  0  0
   -8.4748   -0.5719  -21.7855 C   0  0  0  0  0  0  0  0  0  0  0  0
   -8.7829    0.5711  -21.5062 O   0  0  0  0  0  0  0  0  0  0  0  0
   -7.5082   -1.3050  -21.1400 N   0  0  0  0  0  0  0  0  0  0  0  0
   -6.6605   -0.7889  -20.1224 C   0  0  0  0  0  0  0  0  0  0  0  0
   -6.8855   -1.1465  -18.8169 C   0  0  0  0  0  0  0  0  0  0  0  0
   -6.1191   -0.7568  -17.7694 N   0  0  0  0  0  0  0  0  0  0  0  0
   -5.0951    0.0239  -18.0093 C   0  0  0  0  0  0  0  0  0  0  0  0
   -4.7552    0.4840  -19.3149 C   0  0  0  0  0  0  0  0  0  0  0  0
   -3.6635    1.3654  -19.5327 C   0  0  0  0  0  0  0  0  0  0  0  0
   -3.3222    1.7615  -20.7966 C   0  0  0  0  0  0  0  0  0  0  0  0
   -4.0567    1.2864  -21.9037 C   0  0  0  0  0  0  0  0  0  0  0  0
   -5.1424    0.4611  -21.7203 C   0  0  0  0  0  0  0  0  0  0  0  0
   -5.5322    0.0461  -20.4142 C   0  0  0  0  0  0  0  0  0  0  0  0
   -7.2231   -2.5611  -21.8031 C   0  0  0  0  0  0  0  0  0  0  0  0
   -8.5296   -2.8260  -22.5602 C   0  0  2  0  0  0  0  0  0  0  0  0
   -8.4215   -3.8194  -23.7093 C   0  0  0  0  0  0  0  0  0  0  0  0
  -10.5810   -1.2983  -23.0399 C   0  0  0  0  0  0  0  0  0  0  0  0
  -11.4732   -2.2526  -22.5429 C   0  0  0  0  0  0  0  0  0  0  0  0
  -12.8298   -1.9788  -22.4892 C   0  0  0  0  0  0  0  0  0  0  0  0
  -13.8612   -3.1105  -21.6519 Cl  0  0  0  0  0  0  0  0  0  0  0  0
  -13.3685   -0.8054  -23.0187 C   0  0  0  0  0  0  0  0  0  0  0  0
  -12.5007    0.1086  -23.5887 C   0  0  0  0  0  0  0  0  0  0  0  0
  -11.1296   -0.1441  -23.6174 C   0  0  0  0  0  0  0  0  0  0  0  0
  -10.2548    0.8787  -24.2621 C   0  0  0  0  0  0  0  0  0  0  0  0
  -10.6392    2.0197  -24.4807 O   0  0  0  0  0  0  0  0  0  0  0  0
  1  2  1  0
  2  3  1  0
  3  4  2  0
  3  5  1  0
  5  6  1  0
  6  7  1  0
  8  7  1  6
  8  9  1  0
  9 10  2  0
  9 11  1  0
 11 12  1  0
 12 13  2  0
 13 14  1  0
 14 15  2  0
 15 16  1  0
 16 17  2  0
 17 18  1  0
 18 19  2  0
 19 20  1  0
 20 21  2  0
 11 22  1  0
 22 23  1  0
 23 24  1  6
  8 25  1  0
 25 26  2  0
 26 27  1  0
 27 28  1  0
 27 29  2  0
 29 30  1  0
 30 31  2  0
 31 32  1  0
 32 33  2  0
 32  6  1  0
 23  8  1  0
 31 25  1  0
 21 12  1  0
 21 16  1  0
M  END
$$$$

     RDKit          3D

 27 31  0  0  0  0  0  0  0  0999 V2000
    6.7671   -3.7462   23.9379 C   0  0  0  0  0  0  0  0  0  0  0  0
    6.8912   -2.6435   23.0121 N   0  0  0  0  0  0  0  0  0  0  0  0
    5.9870   -2.4289   22.0064 C   0  0  0  0  0  0  0  0  0  0  0  0
    4.9891   -3.0599   21.7432 O   0  0  0  0  0  0  0  0  0  0  0  0
    6.4412   -1.2940   21.3124 N   0  0  0  0  0  0  0  0  0  0  0  0
    5.7540   -0.7439   20.1985 C   0  0  0  0  0  0  0  0  0  0  0  0
    6.1905   -1.0231   18.9316 C   0  0  0  0  0  0  0  0  0  0  0  0
    5.5872   -0.5889   17.7967 N   0  0  0  0  0  0  0  0  0  0  0  0
    4.5184    0.1600   17.9389 C   0  0  0  0  0  0  0  0  0  0  0  0
    3.9559    0.5204   19.1977 C   0  0  0  0  0  0  0  0  0  0  0  0
    2.7932    1.3266   19.2991 C   0  0  0  0  0  0  0  0  0  0  0  0
    2.2879    1.6662   20.5227 C   0  0  0  0  0  0  0  0  0  0  0  0
    2.9140    1.2092   21.7033 C   0  0  0  0  0  0  0  0  0  0  0  0
    4.0387    0.4245   21.6364 C   0  0  0  0  0  0  0  0  0  0  0  0
    4.5860    0.0600   20.3740 C   0  0  0  0  0  0  0  0  0  0  0  0
    7.6608   -0.8392   21.8013 C   0  0  0  0  0  0  0  0  0  0  0  0
    8.2668    0.1341   21.4334 O   0  0  0  0  0  0  0  0  0  0  0  0
    8.0704   -1.8292   22.8710 C   0  0  0  0  0  0  0  0  0  0  0  0
    9.4206   -2.5322   22.5683 C   0  0  0  0  0  0  0  0  0  0  0  0
   10.0031   -1.8896   23.7508 N   0  0  0  0  0  0  0  0  0  0  0  0
   11.0272   -2.7877   24.7079 S   0  0  0  0  0  0  0  0  0  0  0  0
   11.6629   -1.8695   25.6333 O   0  0  0  0  0  0  0  0  0  0  0  0
   11.8322   -3.5613   23.7789 O   0  0  0  0  0  0  0  0  0  0  0  0
    9.9837   -3.8724   25.6228 C   0  0  0  0  0  0  0  0  0  0  0  0
   10.4241   -5.1427   25.8154 C   0  0  0  0  0  0  0  0  0  0  0  0
   10.4291   -5.2072   26.0185 C   0  0  0  0  0  0  0  0  0  0  0  0
    8.7309   -1.2111   24.1241 C   0  0  0  0  0  0  0  0  0  0  0  0
  1  2  1  0
  2  3  1  0
  3  4  2  0
  3  5  1  0
  5  6  1  0
  6  7  2  0
  7  8  1  0
  8  9  2  0
  9 10  1  0
 10 11  2  0
 11 12  1  0
 12 13  2  0
 13 14  1  0
 14 15  2  0
  5 16  1  0
 16 17  2  0
 16 18  1  0
 18 19  1  0
 19 20  1  0
 20 21  1  0
 21 22  2  0
 21 23  2  0
 21 24  1  0
 24 25  1  0
 25 26  1  0
 20 27  1  0
 18  2  1  0
 26 24  1  0
 15  6  1  0
 27 18  1  0
 15 10  1  0
M  END
$$$$

     RDKit          3D

 34 39  0  0  0  0  0  0  0  0999 V2000
   10.0447    0.7081   22.4408 C   0  0  0  0  0  0  0  0  0  0  0  0
    8.6163    0.1872   22.4206 C   0  0  1  0  0  0  0  0  0  0  0  0
    7.7948    0.7200   21.2369 C   0  0  0  0  0  0  0  0  0  0  0  0
    6.7908   -0.3126   21.0414 N   0  0  0  0  0  0  0  0  0  0  0  0
    5.8572   -0.2005   19.9870 C   0  0  0  0  0  0  0  0  0  0  0  0
    6.0716   -0.8187   18.7830 C   0  0  0  0  0  0  0  0  0  0  0  0
    5.2841   -0.6446   17.6927 N   0  0  0  0  0  0  0  0  0  0  0  0
    4.2281    0.1220   17.8278 C   0  0  0  0  0  0  0  0  0  0  0  0
    3.8613    0.7714   19.0430 C   0  0  0  0  0  0  0  0  0  0  0  0
    2.6953    1.5673   19.1649 C   0  0  0  0  0  0  0  0  0  0  0  0
    2.3731    2.1466   20.3604 C   0  0  0  0  0  0  0  0  0  0  0  0
    3.2238    2.0066   21.4782 C   0  0  0  0  0  0  0  0  0  0  0  0
    4.3778    1.2704   21.3804 C   0  0  0  0  0  0  0  0  0  0  0  0
    4.7081    0.6241   20.1604 C   0  0  0  0  0  0  0  0  0  0  0  0
    7.1797   -1.5446   21.5302 C   0  0  0  0  0  0  0  0  0  0  0  0
    6.5970   -2.5878   21.3090 O   0  0  0  0  0  0  0  0  0  0  0  0
    8.4653   -1.3785   22.3554 C   0  0  1  0  0  0  0  0  0  0  0  0
    9.5791   -2.1258   21.5759 C   0  0  0  0  0  0  0  0  0  0  0  0
   10.7772   -2.3513   22.3688 N   0  0  0  0  0  0  0  0  0  0  0  0
   12.0967   -2.3214   21.7735 C   0  0  0  0  0  0  0  0  0  0  0  0
   12.8103   -1.0416   22.0268 C   0  0  0  0  0  0  0  0  0  0  0  0
   13.2260   -0.1287   21.2192 N   0  0  0  0  0  0  0  0  0  0  0  0
   13.8867    0.7726   22.0433 C   0  0  0  0  0  0  0  0  0  0  0  0
   13.8124    0.3413   23.3172 C   0  0  0  0  0  0  0  0  0  0  0  0
   13.1045   -0.8189   23.3288 O   0  0  0  0  0  0  0  0  0  0  0  0
   10.7228   -2.8116   23.6560 C   0  0  0  0  0  0  0  0  0  0  0  0
   11.6915   -3.3015   24.2180 O   0  0  0  0  0  0  0  0  0  0  0  0
    9.4197   -2.6502   24.3417 C   0  0  0  0  0  0  0  0  0  0  0  0
    9.3398   -3.1311   25.6433 C   0  0  0  0  0  0  0  0  0  0  0  0
    8.1734   -3.0136   26.3667 C   0  0  0  0  0  0  0  0  0  0  0  0
    7.0930   -2.4020   25.7438 C   0  0  0  0  0  0  0  0  0  0  0  0
    5.9513   -2.2789   26.4367 F   0  0  0  0  0  0  0  0  0  0  0  0
    7.1524   -1.9015   24.4556 C   0  0  0  0  0  0  0  0  0  0  0  0
    8.3418   -2.0096   23.7292 C   0  0  0  0  0  0  0  0  0  0  0  0
  2  1  1  6
  2  3  1  0
  3  4  1  0
  4  5  1  0
  5  6  2  0
  6  7  1  0
  7  8  2  0
  8  9  1  0
  9 10  2  0
 10 11  1  0
 11 12  2  0
 12 13  1  0
 13 14  2  0
  4 15  1  0
 15 16  2  0
 15 17  1  0
 17 18  1  6
 18 19  1  0
 19 20  1  0
 20 21  1  0
 21 22  2  0
 22 23  1  0
 23 24  2  0
 24 25  1  0
 19 26  1  0
 26 27  2  0
 26 28  1  0
 28 29  2  0
 29 30  1  0
 30 31  2  0
 31 32  1  0
 31 33  1  0
 33 34  2  0
 17  2  1  0
 25 21  1  0
 34 28  1  0
 14  5  1  0
 34 17  1  0
 14  9  1  0
M  END
>  <cnnaffinities>  (163) 
[6.52081, 6.59342]

>  <score>  (163) 
6.52081

>  <index>  (163) 
82

>  <Smiles>  (163) 
C([C@]1(C(N(c2c(nc(c3c(c(c(c(c23)[H])[H])[H])[H])[H])[H])C(=O)[C@]21C(N(C(c1nc(c(o1)[H])[H])([H])[H])C(=O)c1c(c(c(F)c(c21)[H])[H])[H])([H])[H])([H])[H])[H])([H])([H])[H]

>  <h>  (163) 
<NA>

>  <Training>  (163) 
True

>  <Success>  (163) 
True

>  <enamine_searched>  (163) 
False

>  <enamine_id>  (163) 
nan

$$$$

     RDKit          3D

 38 43  0  0  0  0  0  0  0  0999 V2000
    3.3332    4.8954   26.3199 C   0  0  0  0  0  0  0  0  0  0  0  0
    4.8330    5.0933   26.5153 C   0  0  2  0  0  0  0  0  0  0  0  0
    5.0200    6.3470   27.3800 C   0  0  0  0  0  0  0  0  0  0  0  0
    6.3474    6.8007   27.4771 O   0  0  0  0  0  0  0  0  0  0  0  0
    6.8587    7.0670   26.1902 C   0  0  0  0  0  0  0  0  0  0  0  0
    6.9851    5.7819   25.3905 C   0  0  1  0  0  0  0  0  0  0  0  0
    7.8987    4.8119   26.1038 C   0  0  0  0  0  0  0  0  0  0  0  0
    5.6181    5.1659   25.1868 N   0  0  0  0  0  0  0  0  0  0  0  0
    5.6464    3.8468   24.4320 C   0  0  0  0  0  0  0  0  0  0  0  0
    6.5603    3.7549   23.1789 C   0  0  0  0  0  0  0  0  0  0  0  0
    7.8023    2.9699   23.3101 N   0  0  0  0  0  0  0  0  0  0  0  0
    7.7217    1.5271   23.5394 C   0  0  0  0  0  0  0  0  0  0  0  0
    8.4787    0.7096   22.4514 C   0  0  2  0  0  0  0  0  0  0  0  0
    7.7523    0.9653   21.1110 C   0  0  0  0  0  0  0  0  0  0  0  0
    7.7891    1.9527   20.4107 O   0  0  0  0  0  0  0  0  0  0  0  0
    6.9628   -0.1324   20.8283 N   0  0  0  0  0  0  0  0  0  0  0  0
    5.9511   -0.0542   19.8422 C   0  0  0  0  0  0  0  0  0  0  0  0
    6.1177   -0.7070   18.6503 C   0  0  0  0  0  0  0  0  0  0  0  0
    5.2764   -0.5955   17.5952 N   0  0  0  0  0  0  0  0  0  0  0  0
    4.2189    0.1680   17.7466 C   0  0  0  0  0  0  0  0  0  0  0  0
    3.8905    0.8491   18.9537 C   0  0  0  0  0  0  0  0  0  0  0  0
    2.7190    1.6417   19.0806 C   0  0  0  0  0  0  0  0  0  0  0  0
    2.3830    2.2058   20.2800 C   0  0  0  0  0  0  0  0  0  0  0  0
    3.2086    2.0089   21.4080 C   0  0  0  0  0  0  0  0  0  0  0  0
    4.3641    1.2749   21.3037 C   0  0  0  0  0  0  0  0  0  0  0  0
    4.7557    0.7025   20.0595 C   0  0  0  0  0  0  0  0  0  0  0  0
    7.0445   -1.1955   21.8089 C   0  0  0  0  0  0  0  0  0  0  0  0
    8.3329   -0.8363   22.5663 C   0  0  2  0  0  0  0  0  0  0  0  0
    8.4512   -1.3882   23.9817 C   0  0  0  0  0  0  0  0  0  0  0  0
    9.9065    1.2130   22.4968 C   0  0  0  0  0  0  0  0  0  0  0  0
   11.0153    0.3724   22.3572 C   0  0  0  0  0  0  0  0  0  0  0  0
   12.2813    0.9138   22.2421 C   0  0  0  0  0  0  0  0  0  0  0  0
   13.6190   -0.1553   21.9254 Cl  0  0  0  0  0  0  0  0  0  0  0  0
   12.5124    2.2841   22.3134 C   0  0  0  0  0  0  0  0  0  0  0  0
   11.4278    3.1099   22.5460 C   0  0  0  0  0  0  0  0  0  0  0  0
   10.1389    2.5882   22.6530 C   0  0  0  0  0  0  0  0  0  0  0  0
    8.9905    3.5359   22.9223 C   0  0  0  0  0  0  0  0  0  0  0  0
    9.1275    4.7520   22.8120 O   0  0  0  0  0  0  0  0  0  0  0  0
  2  1  1  6
  2  3  1  0
  3  4  1  0
  4  5  1  0
  5  6  1  0
  6  7  1  1
  6  8  1  0
  8  9  1  0
  9 10  1  0
 10 11  1  0
 11 12  1  0
 13 12  1  1
 13 14  1  0
 14 15  2  0
 14 16  1  0
 16 17  1  0
 17 18  2  0
 18 19  1  0
 19 20  2  0
 20 21  1  0
 21 22  2  0
 22 23  1  0
 23 24  2  0
 24 25  1  0
 25 26  2  0
 16 27  1  0
 27 28  1  0
 28 29  1  1
 13 30  1  0
 30 31  2  0
 31 32  1  0
 32 33  1  0
 32 34  2  0
 34 35  1  0
 35 36  2  0
 36 37  1  0
 37 38  2  0
  8  2  1  0
 37 11  1  0
 28 13  1  0
 36 30  1  0
 26 17  1  0
 26 21  1  0
M  CHG  1   8   1
M  END
$$$$

     RDKit          3D

 35 40  0  0  0  0  0  0  0  0999 V2000
   -8.4810    2.2125  -28.9414 C   0  0  0  0  0  0  0  0  0  0  0  0
   -8.7161    2.2414  -27.5040 N   0  0  0  0  0  0  0  0  0  0  0  0
   -7.8979    1.5468  -26.6703 C   0  0  0  0  0  0  0  0  0  0  0  0
   -6.9160    0.9413  -27.0788 O   0  0  0  0  0  0  0  0  0  0  0  0
   -8.2532    1.6026  -25.1819 C   0  0  0  0  0  0  0  0  0  0  0  0
   -9.0141    0.5039  -24.6483 N   0  0  0  0  0  0  0  0  0  0  0  0
   -8.3632   -0.7670  -24.3804 C   0  0  0  0  0  0  0  0  0  0  0  0
   -8.8800   -1.4226  -23.0705 C   0  0  2  0  0  0  0  0  0  0  0  0
   -8.3647   -0.6341  -21.8406 C   0  0  0  0  0  0  0  0  0  0  0  0
   -8.7109    0.4715  -21.4781 O   0  0  0  0  0  0  0  0  0  0  0  0
   -7.4123   -1.3878  -21.1912 N   0  0  0  0  0  0  0  0  0  0  0  0
   -6.6049   -0.8165  -20.1691 C   0  0  0  0  0  0  0  0  0  0  0  0
   -6.9083   -1.0517  -18.8538 C   0  0  0  0  0  0  0  0  0  0  0  0
   -6.2099   -0.5539  -17.8023 N   0  0  0  0  0  0  0  0  0  0  0  0
   -5.1738    0.2048  -18.0762 C   0  0  0  0  0  0  0  0  0  0  0  0
   -4.7400    0.5269  -19.3961 C   0  0  0  0  0  0  0  0  0  0  0  0
   -3.6103    1.3570  -19.6371 C   0  0  0  0  0  0  0  0  0  0  0  0
   -3.2145    1.6400  -20.9159 C   0  0  0  0  0  0  0  0  0  0  0  0
   -3.9238    1.0981  -22.0115 C   0  0  0  0  0  0  0  0  0  0  0  0
   -5.0136    0.2867  -21.8035 C   0  0  0  0  0  0  0  0  0  0  0  0
   -5.4664   -0.0061  -20.4842 C   0  0  0  0  0  0  0  0  0  0  0  0
   -7.0997   -2.6417  -21.8467 C   0  0  0  0  0  0  0  0  0  0  0  0
   -8.2624   -2.8468  -22.8410 C   0  0  2  0  0  0  0  0  0  0  0  0
   -7.8246   -3.6295  -24.0849 C   0  0  0  0  0  0  0  0  0  0  0  0
  -10.4027   -1.3748  -23.0789 C   0  0  0  0  0  0  0  0  0  0  0  0
  -11.1265   -2.1663  -22.1722 C   0  0  0  0  0  0  0  0  0  0  0  0
  -12.5078   -2.1229  -22.1601 C   0  0  0  0  0  0  0  0  0  0  0  0
  -13.3924   -3.1131  -21.0318 Cl  0  0  0  0  0  0  0  0  0  0  0  0
  -13.2077   -1.2846  -23.0272 C   0  0  0  0  0  0  0  0  0  0  0  0
  -12.5023   -0.4461  -23.8703 C   0  0  0  0  0  0  0  0  0  0  0  0
  -11.1052   -0.4512  -23.8724 C   0  0  0  0  0  0  0  0  0  0  0  0
  -10.3806    0.6055  -24.6512 C   0  0  0  0  0  0  0  0  0  0  0  0
  -10.9449    1.5378  -25.2145 O   0  0  0  0  0  0  0  0  0  0  0  0
   -8.4218    2.9493  -24.5399 C   0  0  0  0  0  0  0  0  0  0  0  0
   -7.1707    2.1590  -24.2925 C   0  0  0  0  0  0  0  0  0  0  0  0
  1  2  1  0
  2  3  1  0
  3  4  2  0
  3  5  1  0
  5  6  1  0
  6  7  1  0
  8  7  1  6
  8  9  1  0
  9 10  2  0
  9 11  1  0
 11 12  1  0
 12 13  2  0
 13 14  1  0
 14 15  2  0
 15 16  1  0
 16 17  2  0
 17 18  1  0
 18 19  2  0
 19 20  1  0
 20 21  2  0
 11 22  1  0
 22 23  1  0
 23 24  1  6
  8 25  1  0
 25 26  2  0
 26 27  1  0
 27 28  1  0
 27 29  2  0
 29 30  1  0
 30 31  2  0
 31 32  1  0
 32 33  2  0
  5 34  1  0
 34 35  1  0
 35  5  1  0
 32  6  1  0
 23  8  1  0
 31 25  1  0
 21 12  1  0
 21 16  1  0
M  END
>  <cnnaffinities>  (165) 
[6.38126, 6.55044, 6.35128, 6.25375, 6.4217, 6.34458]

>  <score>  (165) 
6.38126

>  <index>  (165) 
80

>  <Smiles>  (165) 
C(N(C(=O)C1(N2C([C@@]3(C(=O)N(c4c(nc(c5c(c(c(c(c45)[H])[H])[H])[H])[H])[H])C([C@@]3(C([H])([H])[H])[H])([H])[H])c3c(c(Cl)c(c(c3C2=O)[H])[H])[H])([H])[H])C(C1([H])[H])([H])[H])[H])([H])([H])[H]

>  <h>  (165) 
<NA>

>  <Training>  (165) 
True

>  <Success>  (165) 
True

>  <enamine_searched>  (165) 
False

>  <enamine_id>  (165) 
nan

$$$$

     RDKit          3D

 35 40  0  0  0  0  0  0  0  0999 V2000
   -6.8314    3.4357  -22.3940 C   0  0  0  0  0  0  0  0  0  0  0  0
   -7.5955    2.5764  -23.2749 N   0  0  0  0  0  0  0  0  0  0  0  0
   -7.2151    2.3821  -24.5510 C   0  0  0  0  0  0  0  0  0  0  0  0
   -6.3418    3.0472  -25.0980 O   0  0  0  0  0  0  0  0  0  0  0  0
   -7.8832    1.2696  -25.3447 C   0  0  0  0  0  0  0  0  0  0  0  0
   -8.7737    0.3682  -24.6923 N   0  0  0  0  0  0  0  0  0  0  0  0
   -8.2930   -0.9581  -24.3427 C   0  0  0  0  0  0  0  0  0  0  0  0
   -8.9181   -1.4637  -23.0180 C   0  0  2  0  0  0  0  0  0  0  0  0
   -8.3569   -0.6163  -21.8491 C   0  0  0  0  0  0  0  0  0  0  0  0
   -8.6842    0.5204  -21.5622 O   0  0  0  0  0  0  0  0  0  0  0  0
   -7.3979   -1.3499  -21.1912 N   0  0  0  0  0  0  0  0  0  0  0  0
   -6.5515   -0.8243  -20.1774 C   0  0  0  0  0  0  0  0  0  0  0  0
   -6.8044   -1.1221  -18.8624 C   0  0  0  0  0  0  0  0  0  0  0  0
   -6.0497   -0.6948  -17.8205 N   0  0  0  0  0  0  0  0  0  0  0  0
   -5.0241    0.0789  -18.0818 C   0  0  0  0  0  0  0  0  0  0  0  0
   -4.6599    0.4830  -19.4002 C   0  0  0  0  0  0  0  0  0  0  0  0
   -3.5684    1.3573  -19.6484 C   0  0  0  0  0  0  0  0  0  0  0  0
   -3.1837    1.6522  -20.9255 C   0  0  0  0  0  0  0  0  0  0  0  0
   -3.8768    1.0923  -22.0221 C   0  0  0  0  0  0  0  0  0  0  0  0
   -4.9680    0.2852  -21.8100 C   0  0  0  0  0  0  0  0  0  0  0  0
   -5.4077   -0.0237  -20.4914 C   0  0  0  0  0  0  0  0  0  0  0  0
   -7.1071   -2.6115  -21.8421 C   0  0  0  0  0  0  0  0  0  0  0  0
   -8.4058   -2.8721  -22.6159 C   0  0  2  0  0  0  0  0  0  0  0  0
   -8.3022   -3.8944  -23.7422 C   0  0  0  0  0  0  0  0  0  0  0  0
  -10.4237   -1.3260  -23.1523 C   0  0  0  0  0  0  0  0  0  0  0  0
  -11.3319   -2.2318  -22.5946 C   0  0  0  0  0  0  0  0  0  0  0  0
  -12.6898   -1.9679  -22.6255 C   0  0  0  0  0  0  0  0  0  0  0  0
  -13.7722   -3.0567  -21.7984 Cl  0  0  0  0  0  0  0  0  0  0  0  0
  -13.2065   -0.8308  -23.2464 C   0  0  0  0  0  0  0  0  0  0  0  0
  -12.3194    0.0511  -23.8347 C   0  0  0  0  0  0  0  0  0  0  0  0
  -10.9460   -0.1902  -23.7883 C   0  0  0  0  0  0  0  0  0  0  0  0
  -10.0314    0.8252  -24.3845 C   0  0  0  0  0  0  0  0  0  0  0  0
  -10.3571    1.9905  -24.5660 O   0  0  0  0  0  0  0  0  0  0  0  0
   -6.9688    0.7204  -26.4116 C   0  0  0  0  0  0  0  0  0  0  0  0
   -8.1008    1.6029  -26.8021 C   0  0  0  0  0  0  0  0  0  0  0  0
  1  2  1  0
  2  3  1  0
  3  4  2  0
  3  5  1  0
  5  6  1  0
  6  7  1  0
  8  7  1  6
  8  9  1  0
  9 10  2  0
  9 11  1  0
 11 12  1  0
 12 13  2  0
 13 14  1  0
 14 15  2  0
 15 16  1  0
 16 17  2  0
 17 18  1  0
 18 19  2  0
 19 20  1  0
 20 21  2  0
 11 22  1  0
 22 23  1  0
 23 24  1  6
  8 25  1  0
 25 26  2  0
 26 27  1  0
 27 28  1  0
 27 29  2  0
 29 30  1  0
 30 31  2  0
 31 32  1  0
 32 33  2  0
  5 34  1  0
 34 35  1  0
 35  5  1  0
 32  6  1  0
 23  8  1  0
 31 25  1  0
 21 12  1  0
 21 16  1  0
M  END
$$$$

     RDKit          3D

 34 39  0  0  0  0  0  0  0  0999 V2000
   10.0636    0.6758   22.4468 C   0  0  0  0  0  0  0  0  0  0  0  0
    8.6289    0.1689   22.4279 C   0  0  1  0  0  0  0  0  0  0  0  0
    7.8130    0.7078   21.2423 C   0  0  0  0  0  0  0  0  0  0  0  0
    6.7970   -0.3169   21.0524 N   0  0  0  0  0  0  0  0  0  0  0  0
    5.8600   -0.2064   19.9977 C   0  0  0  0  0  0  0  0  0  0  0  0
    6.0783   -0.8159   18.7898 C   0  0  0  0  0  0  0  0  0  0  0  0
    5.2962   -0.6358   17.6972 N   0  0  0  0  0  0  0  0  0  0  0  0
    4.2429    0.1356   17.8269 C   0  0  0  0  0  0  0  0  0  0  0  0
    3.8739    0.7903   19.0374 C   0  0  0  0  0  0  0  0  0  0  0  0
    2.7019    1.5824   19.1550 C   0  0  0  0  0  0  0  0  0  0  0  0
    2.3794    2.1627   20.3513 C   0  0  0  0  0  0  0  0  0  0  0  0
    3.2247    2.0107   21.4727 C   0  0  0  0  0  0  0  0  0  0  0  0
    4.3769    1.2704   21.3778 C   0  0  0  0  0  0  0  0  0  0  0  0
    4.7151    0.6308   20.1584 C   0  0  0  0  0  0  0  0  0  0  0  0
    7.1795   -1.5533   21.5382 C   0  0  0  0  0  0  0  0  0  0  0  0
    6.5869   -2.5893   21.3102 O   0  0  0  0  0  0  0  0  0  0  0  0
    8.4559   -1.3978   22.3767 C   0  0  1  0  0  0  0  0  0  0  0  0
    9.5875   -2.1520   21.6127 C   0  0  0  0  0  0  0  0  0  0  0  0
   10.7847   -2.3701   22.4157 N   0  0  0  0  0  0  0  0  0  0  0  0
   12.1371   -2.3051   21.8612 C   0  0  0  0  0  0  0  0  0  0  0  0
   12.9093   -1.0979   22.2598 C   0  0  0  0  0  0  0  0  0  0  0  0
   13.5355   -0.9133   23.4415 C   0  0  0  0  0  0  0  0  0  0  0  0
   14.1877    0.2774   23.3842 O   0  0  0  0  0  0  0  0  0  0  0  0
   13.9451    0.7371   22.1458 C   0  0  0  0  0  0  0  0  0  0  0  0
   13.1877   -0.0265   21.4272 N   0  0  0  0  0  0  0  0  0  0  0  0
   10.7079   -2.7935   23.7127 C   0  0  0  0  0  0  0  0  0  0  0  0
   11.6915   -3.2190   24.3155 O   0  0  0  0  0  0  0  0  0  0  0  0
    9.3772   -2.6563   24.3759 C   0  0  0  0  0  0  0  0  0  0  0  0
    9.2720   -3.1191   25.6863 C   0  0  0  0  0  0  0  0  0  0  0  0
    8.1015   -2.9915   26.4085 C   0  0  0  0  0  0  0  0  0  0  0  0
    7.0200   -2.3807   25.7857 C   0  0  0  0  0  0  0  0  0  0  0  0
    5.8715   -2.2501   26.4745 F   0  0  0  0  0  0  0  0  0  0  0  0
    7.0959   -1.8985   24.4876 C   0  0  0  0  0  0  0  0  0  0  0  0
    8.2948   -2.0183   23.7591 C   0  0  0  0  0  0  0  0  0  0  0  0
  2  1  1  6
  2  3  1  0
  3  4  1  0
  4  5  1  0
  5  6  2  0
  6  7  1  0
  7  8  2  0
  8  9  1  0
  9 10  2  0
 10 11  1  0
 11 12  2  0
 12 13  1  0
 13 14  2  0
  4 15  1  0
 15 16  2  0
 15 17  1  0
 17 18  1  6
 18 19  1  0
 19 20  1  0
 20 21  1  0
 21 22  2  0
 22 23  1  0
 23 24  1  0
 24 25  2  0
 19 26  1  0
 26 27  2  0
 26 28  1  0
 28 29  2  0
 29 30  1  0
 30 31  2  0
 31 32  1  0
 31 33  1  0
 33 34  2  0
 17  2  1  0
 25 21  1  0
 34 28  1  0
 14  5  1  0
 34 17  1  0
 14  9  1  0
M  END
>  <cnnaffinities>  (167) 
[6.55399]

>  <score>  (167) 
6.55399

>  <index>  (167) 
85

>  <Smiles>  (167) 
C([C@]1(C(N(c2c(nc(c3c(c(c(c(c23)[H])[H])[H])[H])[H])[H])C(=O)[C@]21C(N(C(c1c(oc(n1)[H])[H])([H])[H])C(=O)c1c(c(c(F)c(c21)[H])[H])[H])([H])[H])([H])[H])[H])([H])([H])[H]

>  <h>  (167) 
<NA>

>  <Training>  (167) 
True

>  <Success>  (167) 
True

>  <enamine_searched>  (167) 
False

>  <enamine_id>  (167) 
nan

$$$$

     RDKit          3D

 40 45  0  0  0  0  0  0  0  0999 V2000
    7.1970    6.3583   21.6522 C   0  0  0  0  0  0  0  0  0  0  0  0
    7.4596    5.5307   22.8109 N   0  0  0  0  0  0  0  0  0  0  0  0
    6.7919    4.3511   22.9423 C   0  0  0  0  0  0  0  0  0  0  0  0
    5.9284    3.9704   22.1699 O   0  0  0  0  0  0  0  0  0  0  0  0
    7.2211    3.5198   24.1545 C   0  0  0  0  0  0  0  0  0  0  0  0
    8.1794    2.4970   23.7537 N   0  0  0  0  0  0  0  0  0  0  0  0
    7.8346    1.0841   23.8090 C   0  0  0  0  0  0  0  0  0  0  0  0
    8.4320    0.2843   22.6123 C   0  0  2  0  0  0  0  0  0  0  0  0
    7.7274    0.6595   21.2896 C   0  0  0  0  0  0  0  0  0  0  0  0
    7.8988    1.6369   20.5951 O   0  0  0  0  0  0  0  0  0  0  0  0
    6.8187   -0.3315   20.9965 N   0  0  0  0  0  0  0  0  0  0  0  0
    5.8817   -0.1696   19.9571 C   0  0  0  0  0  0  0  0  0  0  0  0
    6.0826   -0.7871   18.7517 C   0  0  0  0  0  0  0  0  0  0  0  0
    5.2737   -0.6458   17.6752 N   0  0  0  0  0  0  0  0  0  0  0  0
    4.2114    0.1114   17.8203 C   0  0  0  0  0  0  0  0  0  0  0  0
    3.8626    0.7730   19.0329 C   0  0  0  0  0  0  0  0  0  0  0  0
    2.6897    1.5644   19.1529 C   0  0  0  0  0  0  0  0  0  0  0  0
    2.3631    2.1491   20.3436 C   0  0  0  0  0  0  0  0  0  0  0  0
    3.2170    2.0143   21.4602 C   0  0  0  0  0  0  0  0  0  0  0  0
    4.3777    1.2884   21.3608 C   0  0  0  0  0  0  0  0  0  0  0  0
    4.7187    0.6354   20.1450 C   0  0  0  0  0  0  0  0  0  0  0  0
    6.8250   -1.4569   21.8951 C   0  0  0  0  0  0  0  0  0  0  0  0
    8.1147   -1.2368   22.6892 C   0  0  2  0  0  0  0  0  0  0  0  0
    8.0625   -1.8891   24.0737 C   0  0  0  0  0  0  0  0  0  0  0  0
    7.9577   -3.3350   23.9733 N   0  0  0  0  0  0  0  0  0  0  0  0
    6.8078   -4.0306   24.0434 C   0  0  0  0  0  0  0  0  0  0  0  0
    5.6660   -3.3727   24.3350 N   0  0  0  0  0  0  0  0  0  0  0  0
    4.5897   -4.1487   24.3858 C   0  0  0  0  0  0  0  0  0  0  0  0
    4.5467   -5.4599   24.1636 N   0  0  0  0  0  0  0  0  0  0  0  0
    5.7381   -5.9966   23.8830 C   0  0  0  0  0  0  0  0  0  0  0  0
    6.8958   -5.3634   23.8117 N   0  0  0  0  0  0  0  0  0  0  0  0
    9.9034    0.6252   22.5068 C   0  0  0  0  0  0  0  0  0  0  0  0
   10.8055   -0.2423   21.8759 C   0  0  0  0  0  0  0  0  0  0  0  0
   12.1554    0.0570   21.8659 C   0  0  0  0  0  0  0  0  0  0  0  0
   13.2800   -1.1166   21.2322 Cl  0  0  0  0  0  0  0  0  0  0  0  0
   12.6420    1.2669   22.3591 C   0  0  0  0  0  0  0  0  0  0  0  0
   11.7374    2.1822   22.8649 C   0  0  0  0  0  0  0  0  0  0  0  0
   10.3799    1.8668   22.9467 C   0  0  0  0  0  0  0  0  0  0  0  0
    9.4423    2.9107   23.4631 C   0  0  0  0  0  0  0  0  0  0  0  0
    9.7882    4.0843   23.5917 O   0  0  0  0  0  0  0  0  0  0  0  0
  1  2  1  0
  2  3  1  0
  3  4  2  0
  3  5  1  0
  5  6  1  0
  6  7  1  0
  8  7  1  1
  8  9  1  0
  9 10  2  0
  9 11  1  0
 11 12  1  0
 12 13  2  0
 13 14  1  0
 14 15  2  0
 15 16  1  0
 16 17  2  0
 17 18  1  0
 18 19  2  0
 19 20  1  0
 20 21  2  0
 11 22  1  0
 22 23  1  0
 23 24  1  1
 24 25  1  0
 25 26  1  0
 26 27  2  0
 27 28  1  0
 28 29  2  0
 29 30  1  0
 30 31  2  0
  8 32  1  0
 32 33  2  0
 33 34  1  0
 34 35  1  0
 34 36  2  0
 36 37  1  0
 37 38  2  0
 38 39  1  0
 39 40  2  0
 39  6  1  0
 23  8  1  0
 31 26  1  0
 38 32  1  0
 21 12  1  0
 21 16  1  0
M  END
>  <cnnaffinities>  (168) 
[6.77476, 6.56728, 6.56947]

>  <score>  (168) 
6.77476

>  <index>  (168) 
86

>  <Smiles>  (168) 
C(N(C(=O)C(N1C([C@@]2(C(=O)N(c3c(nc(c4c(c(c(c(c34)[H])[H])[H])[H])[H])[H])C([C@@]2(C(N(c2nc(nc(n2)[H])[H])[H])([H])[H])[H])([H])[H])c2c(c(Cl)c(c(c2C1=O)[H])[H])[H])([H])[H])([H])[H])[H])([H])([H])[H]

>  <h>  (168) 
<NA>

>  <Training>  (168) 
True

>  <Success>  (168) 
True

>  <enamine_searched>  (168) 
False

>  <enamine_id>  (168) 
nan

$$$$

     RDKit          3D

 38 43  0  0  0  0  0  0  0  0999 V2000
    7.5254    4.7402   25.8902 C   0  0  0  0  0  0  0  0  0  0  0  0
    6.2029    4.1704   25.7044 N   0  0  0  0  0  0  0  0  0  0  0  0
    5.8275    3.4990   24.5810 C   0  0  0  0  0  0  0  0  0  0  0  0
    4.8435    2.7749   24.5555 O   0  0  0  0  0  0  0  0  0  0  0  0
    6.7034    3.7010   23.3336 C   0  0  0  0  0  0  0  0  0  0  0  0
    7.9260    2.8982   23.3548 N   0  0  0  0  0  0  0  0  0  0  0  0
    7.8283    1.4646   23.5590 C   0  0  0  0  0  0  0  0  0  0  0  0
    8.5075    0.6872   22.3966 C   0  0  2  0  0  0  0  0  0  0  0  0
    7.6990    1.0076   21.1203 C   0  0  0  0  0  0  0  0  0  0  0  0
    7.6686    2.0447   20.4955 O   0  0  0  0  0  0  0  0  0  0  0  0
    6.9368   -0.1027   20.8051 N   0  0  0  0  0  0  0  0  0  0  0  0
    5.9138   -0.0382   19.8341 C   0  0  0  0  0  0  0  0  0  0  0  0
    6.0544   -0.7248   18.6580 C   0  0  0  0  0  0  0  0  0  0  0  0
    5.2021   -0.6249   17.6130 N   0  0  0  0  0  0  0  0  0  0  0  0
    4.1531    0.1499   17.7687 C   0  0  0  0  0  0  0  0  0  0  0  0
    3.8385    0.8420   18.9725 C   0  0  0  0  0  0  0  0  0  0  0  0
    2.6643    1.6287   19.1127 C   0  0  0  0  0  0  0  0  0  0  0  0
    2.3445    2.1926   20.3153 C   0  0  0  0  0  0  0  0  0  0  0  0
    3.1869    2.0088   21.4346 C   0  0  0  0  0  0  0  0  0  0  0  0
    4.3480    1.2878   21.3148 C   0  0  0  0  0  0  0  0  0  0  0  0
    4.7190    0.7114   20.0667 C   0  0  0  0  0  0  0  0  0  0  0  0
    7.0649   -1.2109   21.7300 C   0  0  0  0  0  0  0  0  0  0  0  0
    8.3435   -0.8440   22.4939 C   0  0  2  0  0  0  0  0  0  0  0  0
    8.4578   -1.3761   23.9244 C   0  0  0  0  0  0  0  0  0  0  0  0
    8.4120   -2.8201   24.0162 N   0  0  0  0  0  0  0  0  0  0  0  0
    9.4363   -3.6953   24.1396 C   0  0  0  0  0  0  0  0  0  0  0  0
    8.8749   -4.9450   24.2862 C   0  0  0  0  0  0  0  0  0  0  0  0
    7.4875   -4.7109   24.2209 C   0  0  0  0  0  0  0  0  0  0  0  0
    7.2152   -3.4230   24.0459 N   0  0  0  0  0  0  0  0  0  0  0  0
    9.9560    1.1479   22.3453 C   0  0  0  0  0  0  0  0  0  0  0  0
   11.0636    0.2948   22.1501 C   0  0  0  0  0  0  0  0  0  0  0  0
   12.3398    0.8302   22.0672 C   0  0  0  0  0  0  0  0  0  0  0  0
   13.6813   -0.2381   21.7590 Cl  0  0  0  0  0  0  0  0  0  0  0  0
   12.5707    2.2003   22.1832 C   0  0  0  0  0  0  0  0  0  0  0  0
   11.4925    3.0337   22.3963 C   0  0  0  0  0  0  0  0  0  0  0  0
   10.2033    2.5183   22.5348 C   0  0  0  0  0  0  0  0  0  0  0  0
    9.1021    3.4706   22.9540 C   0  0  0  0  0  0  0  0  0  0  0  0
    9.2718    4.6825   22.9632 O   0  0  0  0  0  0  0  0  0  0  0  0
  1  2  1  0
  2  3  1  0
  3  4  2  0
  3  5  1  0
  5  6  1  0
  6  7  1  0
  8  7  1  1
  8  9  1  0
  9 10  2  0
  9 11  1  0
 11 12  1  0
 12 13  2  0
 13 14  1  0
 14 15  2  0
 15 16  1  0
 16 17  2  0
 17 18  1  0
 18 19  2  0
 19 20  1  0
 20 21  2  0
 11 22  1  0
 22 23  1  0
 23 24  1  1
 24 25  1  0
 25 26  1  0
 26 27  2  0
 27 28  1  0
 28 29  2  0
  8 30  1  0
 30 31  2  0
 31 32  1  0
 32 33  1  0
 32 34  2  0
 34 35  1  0
 35 36  2  0
 36 37  1  0
 37 38  2  0
 37  6  1  0
 23  8  1  0
 29 25  1  0
 36 30  1  0
 21 12  1  0
 21 16  1  0
M  END
$$$$

     RDKit          3D

 36 40  0  0  0  0  0  0  0  0999 V2000
    9.0741   -1.2574   20.8920 C   0  0  0  0  0  0  0  0  0  0  0  0
    7.6679   -1.2703   21.4924 C   0  0  0  0  0  0  0  0  0  0  0  0
    6.8789    0.0292   21.2840 C   0  0  0  0  0  0  0  0  0  0  0  0
    6.8437    0.8143   22.2237 O   0  0  0  0  0  0  0  0  0  0  0  0
    6.0395    0.1627   20.1757 N   0  0  0  0  0  0  0  0  0  0  0  0
    6.2764   -0.6673   18.9971 C   0  0  0  0  0  0  0  0  0  0  0  0
    5.8694    0.0703   17.7191 C   0  0  0  0  0  0  0  0  0  0  0  0
    4.4352    0.6018   17.7336 C   0  0  0  0  0  0  0  0  0  0  0  0
    4.0311    1.0812   19.1006 C   0  0  0  0  0  0  0  0  0  0  0  0
    2.8253    1.7806   19.1996 C   0  0  0  0  0  0  0  0  0  0  0  0
    2.4113    2.2879   20.4257 C   0  0  0  0  0  0  0  0  0  0  0  0
    3.1682    2.0748   21.5706 C   0  0  0  0  0  0  0  0  0  0  0  0
    2.8338    2.7824   22.7197 N   0  0  0  0  0  0  0  0  0  0  0  0
    2.8462    4.2410   22.5785 C   0  0  0  0  0  0  0  0  0  0  0  0
    4.2706    4.7381   22.6401 C   0  0  0  0  0  0  0  0  0  0  0  0
    5.0303    4.8562   21.4646 C   0  0  0  0  0  0  0  0  0  0  0  0
    6.3519    5.3088   21.5216 C   0  0  0  0  0  0  0  0  0  0  0  0
    6.9190    5.6553   22.7522 C   0  0  0  0  0  0  0  0  0  0  0  0
    6.1761    5.5331   23.9303 C   0  0  0  0  0  0  0  0  0  0  0  0
    6.9559    5.9733   25.6163 Br  0  0  0  0  0  0  0  0  0  0  0  0
    4.8589    5.0677   23.8705 C   0  0  0  0  0  0  0  0  0  0  0  0
    2.8000    2.1996   23.9848 C   0  0  0  0  0  0  0  0  0  0  0  0
    2.7821    2.9262   24.9731 O   0  0  0  0  0  0  0  0  0  0  0  0
    2.6636    0.6771   24.1873 C   0  0  0  0  0  0  0  0  0  0  0  0
    1.4261    0.2923   25.0073 C   0  0  0  0  0  0  0  0  0  0  0  0
    1.5907   -0.3089   26.2710 C   0  0  0  0  0  0  0  0  0  0  0  0
    0.5749   -0.6454   27.0806 N   0  0  0  0  0  0  0  0  0  0  0  0
   -0.6696   -0.3895   26.6523 C   0  0  0  0  0  0  0  0  0  0  0  0
   -0.9562    0.1867   25.4106 C   0  0  0  0  0  0  0  0  0  0  0  0
   -2.2855    0.4134   25.0137 C   0  0  0  0  0  0  0  0  0  0  0  0
   -2.5543    0.9473   23.7520 C   0  0  0  0  0  0  0  0  0  0  0  0
   -1.5041    1.2607   22.8855 C   0  0  0  0  0  0  0  0  0  0  0  0
   -0.1760    1.0645   23.2918 C   0  0  0  0  0  0  0  0  0  0  0  0
    0.1115    0.5255   24.5560 C   0  0  0  0  0  0  0  0  0  0  0  0
    4.3500    1.3382   21.4941 C   0  0  0  0  0  0  0  0  0  0  0  0
    4.8194    0.8639   20.2569 C   0  0  0  0  0  0  0  0  0  0  0  0
  1  2  1  0
  2  3  1  0
  3  4  2  0
  3  5  1  0
  5  6  1  0
  6  7  1  0
  7  8  1  0
  8  9  1  0
  9 10  2  0
 10 11  1  0
 11 12  2  0
 12 13  1  0
 13 14  1  0
 14 15  1  0
 15 16  2  0
 16 17  1  0
 17 18  2  0
 18 19  1  0
 19 20  1  0
 19 21  2  0
 13 22  1  0
 22 23  2  0
 22 24  1  0
 24 25  1  0
 25 26  2  0
 26 27  1  0
 27 28  2  0
 28 29  1  0
 29 30  2  0
 30 31  1  0
 31 32  2  0
 32 33  1  0
 33 34  2  0
 12 35  1  0
 35 36  2  0
 36  5  1  0
 36  9  1  0
 21 15  1  0
 34 25  1  0
 34 29  1  0
M  END
$$$$

     RDKit          3D

 20 22  0  0  0  0  0  0  0  0999 V2000
   -8.1581   -0.2472  -21.4184 O   0  0  0  0  0  0  0  0  0  0  0  0
   -7.6777   -1.3155  -21.7162 C   0  0  0  0  0  0  0  0  0  0  0  0
   -6.6508   -2.0370  -20.8463 C   0  0  0  0  0  0  0  0  0  0  0  0
   -5.9074   -1.1467  -19.8811 C   0  0  0  0  0  0  0  0  0  0  0  0
   -6.2640   -1.1225  -18.5597 C   0  0  0  0  0  0  0  0  0  0  0  0
   -5.6179   -0.4502  -17.5692 N   0  0  0  0  0  0  0  0  0  0  0  0
   -4.5771    0.2681  -17.9225 C   0  0  0  0  0  0  0  0  0  0  0  0
   -4.1064    0.3768  -19.2625 C   0  0  0  0  0  0  0  0  0  0  0  0
   -2.9862    1.1826  -19.6032 C   0  0  0  0  0  0  0  0  0  0  0  0
   -2.5272    1.2347  -20.8915 C   0  0  0  0  0  0  0  0  0  0  0  0
   -3.1890    0.4996  -21.9046 C   0  0  0  0  0  0  0  0  0  0  0  0
   -4.2920   -0.2675  -21.6106 C   0  0  0  0  0  0  0  0  0  0  0  0
   -4.7827   -0.3556  -20.2776 C   0  0  0  0  0  0  0  0  0  0  0  0
   -7.9916   -1.9573  -22.9117 N   0  0  0  0  0  0  0  0  0  0  0  0
   -8.2934   -3.3823  -22.9201 C   0  0  0  0  0  0  0  0  0  0  0  0
   -9.5941   -3.7585  -22.2468 C   0  0  0  0  0  0  0  0  0  0  0  0
  -10.7498   -3.1023  -22.3945 C   0  0  0  0  0  0  0  0  0  0  0  0
  -11.0219   -1.8858  -23.1849 C   0  0  0  0  0  0  0  0  0  0  0  0
  -10.1745   -1.0724  -23.8253 C   0  0  0  0  0  0  0  0  0  0  0  0
   -8.6771   -1.1718  -23.9233 C   0  0  0  0  0  0  0  0  0  0  0  0
  1  2  2  0
  2  3  1  0
  3  4  1  0
  4  5  2  0
  5  6  1  0
  6  7  2  0
  7  8  1  0
  8  9  2  0
  9 10  1  0
 10 11  2  0
 11 12  1  0
 12 13  2  0
  2 14  1  0
 14 15  1  0
 15 16  1  0
 16 17  2  0
 17 18  1  0
 18 19  2  0
 19 20  1  0
 13  4  1  0
 20 14  1  0
 13  8  1  0
M  END
$$$$

     RDKit          3D

 28 31  0  0  0  0  0  0  0  0999 V2000
  -10.5973    0.5405  -25.0882 C   0  0  0  0  0  0  0  0  0  0  0  0
   -9.7931   -0.5973  -24.8998 O   0  0  0  0  0  0  0  0  0  0  0  0
   -8.4689   -0.4947  -25.2037 C   0  0  0  0  0  0  0  0  0  0  0  0
   -7.9292    0.5369  -25.9782 C   0  0  0  0  0  0  0  0  0  0  0  0
   -6.5625    0.5519  -26.2423 C   0  0  0  0  0  0  0  0  0  0  0  0
   -5.7536   -0.4512  -25.7256 C   0  0  0  0  0  0  0  0  0  0  0  0
   -6.3138   -1.4615  -24.9455 C   0  0  0  0  0  0  0  0  0  0  0  0
   -7.6711   -1.5279  -24.6786 C   0  0  0  0  0  0  0  0  0  0  0  0
   -8.3142   -2.6444  -23.8392 C   0  0  1  0  0  0  0  0  0  0  0  0
   -9.1524   -3.6338  -24.6813 C   0  0  0  0  0  0  0  0  0  0  0  0
   -8.4144   -4.8456  -25.2663 C   0  0  1  0  0  0  0  0  0  0  0  0
   -7.5133   -4.5252  -26.4636 C   0  0  0  0  0  0  0  0  0  0  0  0
   -7.6801   -5.5388  -24.1177 C   0  0  0  0  0  0  0  0  0  0  0  0
   -6.7245   -4.5939  -23.4050 C   0  0  0  0  0  0  0  0  0  0  0  0
   -7.3697   -3.3533  -22.9658 N   0  0  0  0  0  0  0  0  0  0  0  0
   -6.7563   -2.7496  -21.8851 C   0  0  0  0  0  0  0  0  0  0  0  0
   -5.7562   -3.2277  -21.3785 O   0  0  0  0  0  0  0  0  0  0  0  0
   -7.3994   -1.4807  -21.2948 C   0  0  0  0  0  0  0  0  0  0  0  0
   -6.5764   -0.8505  -20.1965 C   0  0  0  0  0  0  0  0  0  0  0  0
   -6.8808   -1.0647  -18.8794 C   0  0  0  0  0  0  0  0  0  0  0  0
   -6.2100   -0.5531  -17.8079 N   0  0  0  0  0  0  0  0  0  0  0  0
   -5.1738    0.2072  -18.0723 C   0  0  0  0  0  0  0  0  0  0  0  0
   -4.7280    0.5148  -19.3853 C   0  0  0  0  0  0  0  0  0  0  0  0
   -3.6038    1.3459  -19.6218 C   0  0  0  0  0  0  0  0  0  0  0  0
   -3.2021    1.6247  -20.8982 C   0  0  0  0  0  0  0  0  0  0  0  0
   -3.9097    1.0843  -21.9976 C   0  0  0  0  0  0  0  0  0  0  0  0
   -5.0029    0.2781  -21.7967 C   0  0  0  0  0  0  0  0  0  0  0  0
   -5.4443   -0.0292  -20.4836 C   0  0  0  0  0  0  0  0  0  0  0  0
  1  2  1  0
  2  3  1  0
  3  4  2  0
  4  5  1  0
  5  6  2  0
  6  7  1  0
  7  8  2  0
  9  8  1  6
  9 10  1  0
 10 11  1  0
 11 12  1  6
 11 13  1  0
 13 14  1  0
 14 15  1  0
 15 16  1  0
 16 17  2  0
 16 18  1  0
 18 19  1  0
 19 20  2  0
 20 21  1  0
 21 22  2  0
 22 23  1  0
 23 24  2  0
 24 25  1  0
 25 26  2  0
 26 27  1  0
 27 28  2  0
  8  3  1  0
 15  9  1  0
 28 19  1  0
 28 23  1  0
M  END
>  <cnnaffinities>  (172) 
[5.60769, 5.42353, 5.62438, 5.60364, 5.73065]

>  <score>  (172) 
5.60769

>  <index>  (172) 
82

>  <Smiles>  (172) 
C(Oc1c(c(c(c(c1[C@]1(C([C@@](C([H])([H])[H])(C(C(N1C(=O)C(c1c(nc(c2c(c(c(c(c12)[H])[H])[H])[H])[H])[H])([H])[H])([H])[H])([H])[H])[H])([H])[H])[H])[H])[H])[H])[H])([H])([H])[H]

>  <h>  (172) 
<NA>

>  <Training>  (172) 
True

>  <Success>  (172) 
True

>  <enamine_searched>  (172) 
False

>  <enamine_id>  (172) 
nan

$$$$

     RDKit          3D

 30 34  0  0  0  0  0  0  0  0999 V2000
   -3.6260   -1.0749  -25.3568 N   0  0  0  0  0  0  0  0  0  0  0  0
   -4.5218   -2.0122  -26.3777 S   0  0  0  0  0  0  0  0  0  0  0  0
   -4.3055   -3.3706  -25.9215 O   0  0  0  0  0  0  0  0  0  0  0  0
   -4.1897   -1.5676  -27.7174 O   0  0  0  0  0  0  0  0  0  0  0  0
   -6.2247   -1.5897  -26.0858 C   0  0  0  0  0  0  0  0  0  0  0  0
   -6.9802   -0.9924  -27.0942 C   0  0  0  0  0  0  0  0  0  0  0  0
   -8.2844   -0.6211  -26.8254 C   0  0  0  0  0  0  0  0  0  0  0  0
   -8.8195   -0.8196  -25.5476 C   0  0  0  0  0  0  0  0  0  0  0  0
   -8.0821   -1.4607  -24.5549 C   0  0  0  0  0  0  0  0  0  0  0  0
   -6.7674   -1.8238  -24.8303 C   0  0  0  0  0  0  0  0  0  0  0  0
   -8.6804   -1.6890  -23.1807 C   0  0  1  0  0  0  0  0  0  0  0  0
  -10.2136   -1.5969  -23.2303 C   0  0  0  0  0  0  0  0  0  0  0  0
  -10.6473   -0.3861  -24.0396 C   0  0  0  0  0  0  0  0  0  0  0  0
  -10.0734   -0.3637  -25.3357 O   0  0  0  0  0  0  0  0  0  0  0  0
   -8.2605   -2.9271  -22.5735 N   0  0  0  0  0  0  0  0  0  0  0  0
   -7.4708   -2.7904  -21.4749 C   0  0  0  0  0  0  0  0  0  0  0  0
   -6.8996   -3.6586  -20.8616 O   0  0  0  0  0  0  0  0  0  0  0  0
   -7.4055   -1.4025  -21.2128 N   0  0  0  0  0  0  0  0  0  0  0  0
   -6.5917   -0.8330  -20.1938 C   0  0  0  0  0  0  0  0  0  0  0  0
   -6.9038   -1.0704  -18.8799 C   0  0  0  0  0  0  0  0  0  0  0  0
   -6.2227   -0.5506  -17.8296 N   0  0  0  0  0  0  0  0  0  0  0  0
   -5.1857    0.2058  -18.0976 C   0  0  0  0  0  0  0  0  0  0  0  0
   -4.7353    0.5148  -19.4103 C   0  0  0  0  0  0  0  0  0  0  0  0
   -3.6009    1.3410  -19.6382 C   0  0  0  0  0  0  0  0  0  0  0  0
   -3.1840    1.6043  -20.9128 C   0  0  0  0  0  0  0  0  0  0  0  0
   -3.8785    1.0466  -22.0113 C   0  0  0  0  0  0  0  0  0  0  0  0
   -4.9771    0.2488  -21.8195 C   0  0  0  0  0  0  0  0  0  0  0  0
   -5.4477   -0.0259  -20.5026 C   0  0  0  0  0  0  0  0  0  0  0  0
   -8.0981   -0.6743  -22.1807 C   0  0  0  0  0  0  0  0  0  0  0  0
   -8.2088    0.5269  -22.2172 O   0  0  0  0  0  0  0  0  0  0  0  0
  1  2  1  0
  2  3  2  0
  2  4  2  0
  2  5  1  0
  5  6  2  0
  6  7  1  0
  7  8  2  0
  8  9  1  0
  9 10  2  0
  9 11  1  0
 11 12  1  6
 12 13  1  0
 13 14  1  0
 11 15  1  0
 15 16  1  0
 16 17  2  0
 16 18  1  0
 18 19  1  0
 19 20  2  0
 20 21  1  0
 21 22  2  0
 22 23  1  0
 23 24  2  0
 24 25  1  0
 25 26  2  0
 26 27  1  0
 27 28  2  0
 18 29  1  0
 29 30  2  0
 10  5  1  0
 29 11  1  0
 14  8  1  0
 28 19  1  0
 28 23  1  0
M  END
>  <cnnaffinities>  (173) 
[5.35591, 5.34483]

>  <score>  (173) 
5.35591

>  <index>  (173) 
83

>  <Smiles>  (173) 
N(S(=O)(=O)c1c(c(c2c(c1[H])[C@@]1(C(C(O2)([H])[H])([H])[H])N(C(=O)N(c2c(nc(c3c(c(c(c(c23)[H])[H])[H])[H])[H])[H])C1=O)[H])[H])[H])([H])[H]

>  <h>  (173) 
<NA>

>  <Training>  (173) 
True

>  <Success>  (173) 
True

>  <enamine_searched>  (173) 
False

>  <enamine_id>  (173) 
nan

$$$$

     RDKit          3D

 37 42  0  0  0  0  0  0  0  0999 V2000
   -8.4255   -3.8250  -23.7046 C   0  0  0  0  0  0  0  0  0  0  0  0
   -8.5335   -2.8229  -22.5628 C   0  0  1  0  0  0  0  0  0  0  0  0
   -7.2239   -2.5582  -21.8133 C   0  0  0  0  0  0  0  0  0  0  0  0
   -7.5053   -1.3034  -21.1438 N   0  0  0  0  0  0  0  0  0  0  0  0
   -6.6619   -0.7887  -20.1169 C   0  0  0  0  0  0  0  0  0  0  0  0
   -6.8809   -1.1556  -18.8115 C   0  0  0  0  0  0  0  0  0  0  0  0
   -6.1096   -0.7748  -17.7644 N   0  0  0  0  0  0  0  0  0  0  0  0
   -5.0828    0.0002  -18.0146 C   0  0  0  0  0  0  0  0  0  0  0  0
   -4.7460    0.4690  -19.3163 C   0  0  0  0  0  0  0  0  0  0  0  0
   -3.6537    1.3528  -19.5289 C   0  0  0  0  0  0  0  0  0  0  0  0
   -3.3284    1.7594  -20.7921 C   0  0  0  0  0  0  0  0  0  0  0  0
   -4.0722    1.3001  -21.8998 C   0  0  0  0  0  0  0  0  0  0  0  0
   -5.1547    0.4726  -21.7181 C   0  0  0  0  0  0  0  0  0  0  0  0
   -5.5345    0.0450  -20.4135 C   0  0  0  0  0  0  0  0  0  0  0  0
   -8.4681   -0.5651  -21.7877 C   0  0  0  0  0  0  0  0  0  0  0  0
   -8.7543    0.5853  -21.5082 O   0  0  0  0  0  0  0  0  0  0  0  0
   -9.0713   -1.4166  -22.9379 C   0  0  1  0  0  0  0  0  0  0  0  0
   -8.5042   -0.8901  -24.2852 C   0  0  0  0  0  0  0  0  0  0  0  0
   -8.9883    0.4482  -24.5816 N   0  0  0  0  0  0  0  0  0  0  0  0
   -8.1664    1.3452  -25.3587 C   0  0  0  0  0  0  0  0  0  0  0  0
   -7.4982    2.4943  -24.5958 C   0  0  0  0  0  0  0  0  0  0  0  0
   -6.7369    3.2365  -25.2043 O   0  0  0  0  0  0  0  0  0  0  0  0
   -7.7718    2.6180  -23.2722 N   0  0  0  0  0  0  0  0  0  0  0  0
   -6.9734    3.5129  -22.4669 C   0  0  0  0  0  0  0  0  0  0  0  0
   -7.5037    4.9301  -22.3777 C   0  0  0  0  0  0  0  0  0  0  0  0
   -8.8336    4.9735  -22.0505 F   0  0  0  0  0  0  0  0  0  0  0  0
   -7.0635    6.0085  -23.3084 C   0  0  0  0  0  0  0  0  0  0  0  0
   -6.6028    5.9987  -21.8620 C   0  0  0  0  0  0  0  0  0  0  0  0
  -10.2428    0.8773  -24.2529 C   0  0  0  0  0  0  0  0  0  0  0  0
  -10.6164    2.0254  -24.4683 O   0  0  0  0  0  0  0  0  0  0  0  0
  -11.1240   -0.1355  -23.6030 C   0  0  0  0  0  0  0  0  0  0  0  0
  -12.4935    0.1229  -23.5796 C   0  0  0  0  0  0  0  0  0  0  0  0
  -13.3640   -0.7995  -23.0387 C   0  0  0  0  0  0  0  0  0  0  0  0
  -12.8300   -1.9807  -22.5381 C   0  0  0  0  0  0  0  0  0  0  0  0
  -13.6707   -2.8783  -21.9930 F   0  0  0  0  0  0  0  0  0  0  0  0
  -11.4780   -2.2646  -22.5578 C   0  0  0  0  0  0  0  0  0  0  0  0
  -10.5825   -1.2994  -23.0378 C   0  0  0  0  0  0  0  0  0  0  0  0
  2  1  1  6
  2  3  1  0
  3  4  1  0
  4  5  1  0
  5  6  2  0
  6  7  1  0
  7  8  2  0
  8  9  1  0
  9 10  2  0
 10 11  1  0
 11 12  2  0
 12 13  1  0
 13 14  2  0
  4 15  1  0
 15 16  2  0
 15 17  1  0
 17 18  1  6
 18 19  1  0
 19 20  1  0
 20 21  1  0
 21 22  2  0
 21 23  1  0
 23 24  1  0
 24 25  1  0
 25 26  1  0
 25 27  1  0
 27 28  1  0
 19 29  1  0
 29 30  2  0
 29 31  1  0
 31 32  2  0
 32 33  1  0
 33 34  2  0
 34 35  1  0
 34 36  1  0
 36 37  2  0
 17  2  1  0
 28 25  1  0
 37 31  1  0
 14  5  1  0
 37 17  1  0
 14  9  1  0
M  END
$$$$

     RDKit          3D

 34 39  0  0  0  0  0  0  0  0999 V2000
   -7.0015    3.6322  -22.4884 C   0  0  0  0  0  0  0  0  0  0  0  0
   -7.7818    2.6962  -23.2752 N   0  0  0  0  0  0  0  0  0  0  0  0
   -7.5069    2.5372  -24.5835 C   0  0  0  0  0  0  0  0  0  0  0  0
   -6.7418    3.2598  -25.2081 O   0  0  0  0  0  0  0  0  0  0  0  0
   -8.1639    1.3690  -25.3261 C   0  0  0  0  0  0  0  0  0  0  0  0
   -9.0010    0.4844  -24.5540 N   0  0  0  0  0  0  0  0  0  0  0  0
   -8.5213   -0.8570  -24.2937 C   0  0  0  0  0  0  0  0  0  0  0  0
   -9.0718   -1.4599  -22.9689 C   0  0  2  0  0  0  0  0  0  0  0  0
   -8.4945   -0.6241  -21.7976 C   0  0  0  0  0  0  0  0  0  0  0  0
   -8.8231    0.5131  -21.5151 O   0  0  0  0  0  0  0  0  0  0  0  0
   -7.5075   -1.3401  -21.1592 N   0  0  0  0  0  0  0  0  0  0  0  0
   -6.6671   -0.8122  -20.1277 C   0  0  0  0  0  0  0  0  0  0  0  0
   -6.9026   -1.1453  -18.8158 C   0  0  0  0  0  0  0  0  0  0  0  0
   -6.1481   -0.7327  -17.7639 N   0  0  0  0  0  0  0  0  0  0  0  0
   -5.1231    0.0429  -18.0114 C   0  0  0  0  0  0  0  0  0  0  0  0
   -4.7696    0.4868  -19.3182 C   0  0  0  0  0  0  0  0  0  0  0  0
   -3.6776    1.3687  -19.5345 C   0  0  0  0  0  0  0  0  0  0  0  0
   -3.3349    1.7569  -20.7964 C   0  0  0  0  0  0  0  0  0  0  0  0
   -4.0709    1.2791  -21.9015 C   0  0  0  0  0  0  0  0  0  0  0  0
   -5.1506    0.4492  -21.7220 C   0  0  0  0  0  0  0  0  0  0  0  0
   -5.5429    0.0349  -20.4181 C   0  0  0  0  0  0  0  0  0  0  0  0
   -7.2367   -2.6139  -21.7833 C   0  0  0  0  0  0  0  0  0  0  0  0
   -8.4341   -2.8420  -22.7101 C   0  0  0  0  0  0  0  0  0  0  0  0
   -9.0961   -4.1829  -22.6400 C   0  0  0  0  0  0  0  0  0  0  0  0
   -8.2514   -3.8444  -23.8283 C   0  0  0  0  0  0  0  0  0  0  0  0
  -10.5858   -1.3140  -23.0607 C   0  0  0  0  0  0  0  0  0  0  0  0
  -11.4801   -2.2058  -22.4775 C   0  0  0  0  0  0  0  0  0  0  0  0
  -12.8350   -1.9396  -22.4457 C   0  0  0  0  0  0  0  0  0  0  0  0
  -13.8522   -3.0670  -21.5896 Cl  0  0  0  0  0  0  0  0  0  0  0  0
  -13.3785   -0.7849  -23.0049 C   0  0  0  0  0  0  0  0  0  0  0  0
  -12.5112    0.1111  -23.5944 C   0  0  0  0  0  0  0  0  0  0  0  0
  -11.1436   -0.1553  -23.6365 C   0  0  0  0  0  0  0  0  0  0  0  0
  -10.2787    0.8795  -24.2766 C   0  0  0  0  0  0  0  0  0  0  0  0
  -10.6809    2.0150  -24.5047 O   0  0  0  0  0  0  0  0  0  0  0  0
  1  2  1  0
  2  3  1  0
  3  4  2  0
  3  5  1  0
  5  6  1  0
  6  7  1  0
  8  7  1  6
  8  9  1  0
  9 10  2  0
  9 11  1  0
 11 12  1  0
 12 13  2  0
 13 14  1  0
 14 15  2  0
 15 16  1  0
 16 17  2  0
 17 18  1  0
 18 19  2  0
 19 20  1  0
 20 21  2  0
 11 22  1  0
 22 23  1  0
 23 24  1  0
 24 25  1  0
  8 26  1  0
 26 27  2  0
 27 28  1  0
 28 29  1  0
 28 30  2  0
 30 31  1  0
 31 32  2  0
 32 33  1  0
 33 34  2  0
 33  6  1  0
 23  8  1  0
 32 26  1  0
 21 12  1  0
 25 23  1  0
 21 16  1  0
M  END
$$$$

     RDKit          3D

 21 23  0  0  0  0  0  0  0  0999 V2000
   -8.5395   -5.5584  -25.7863 C   0  0  0  0  0  0  0  0  0  0  0  0
   -9.0489   -5.4363  -24.3504 C   0  0  1  0  0  0  0  0  0  0  0  0
   -8.0229   -5.8737  -23.3102 C   0  0  0  0  0  0  0  0  0  0  0  0
   -6.9354   -4.8305  -23.0929 C   0  0  0  0  0  0  0  0  0  0  0  0
   -7.5152   -3.5409  -22.7107 N   0  0  0  0  0  0  0  0  0  0  0  0
   -6.7569   -2.7457  -21.8632 C   0  0  0  0  0  0  0  0  0  0  0  0
   -5.6250   -3.0585  -21.5417 O   0  0  0  0  0  0  0  0  0  0  0  0
   -7.4128   -1.4736  -21.2703 C   0  0  0  0  0  0  0  0  0  0  0  0
   -6.5796   -0.8308  -20.1833 C   0  0  0  0  0  0  0  0  0  0  0  0
   -6.8739   -1.0470  -18.8634 C   0  0  0  0  0  0  0  0  0  0  0  0
   -6.1949   -0.5432  -17.7958 N   0  0  0  0  0  0  0  0  0  0  0  0
   -5.1606    0.2192  -18.0641 C   0  0  0  0  0  0  0  0  0  0  0  0
   -4.7231    0.5287  -19.3791 C   0  0  0  0  0  0  0  0  0  0  0  0
   -3.5950    1.3562  -19.6205 C   0  0  0  0  0  0  0  0  0  0  0  0
   -3.1918    1.6328  -20.8994 C   0  0  0  0  0  0  0  0  0  0  0  0
   -3.9018    1.0893  -21.9926 C   0  0  0  0  0  0  0  0  0  0  0  0
   -4.9981    0.2877  -21.7854 C   0  0  0  0  0  0  0  0  0  0  0  0
   -5.4451   -0.0134  -20.4733 C   0  0  0  0  0  0  0  0  0  0  0  0
   -8.5388   -2.9939  -23.6119 C   0  0  1  0  0  0  0  0  0  0  0  0
   -7.9408   -2.2903  -24.8400 C   0  0  0  0  0  0  0  0  0  0  0  0
   -9.5870   -4.0595  -23.9664 C   0  0  0  0  0  0  0  0  0  0  0  0
  2  1  1  6
  2  3  1  0
  3  4  1  0
  4  5  1  0
  5  6  1  0
  6  7  2  0
  6  8  1  0
  8  9  1  0
  9 10  2  0
 10 11  1  0
 11 12  2  0
 12 13  1  0
 13 14  2  0
 14 15  1  0
 15 16  2  0
 16 17  1  0
 17 18  2  0
  5 19  1  0
 19 20  1  6
 19 21  1  0
 21  2  1  0
 18  9  1  0
 18 13  1  0
M  END
>  <cnnaffinities>  (176) 
[5.06384, 4.93713, 4.95705, 4.89264]

>  <score>  (176) 
5.06384

>  <index>  (176) 
86

>  <Smiles>  (176) 
C([C@]1(C(C(N(C(=O)C(c2c(nc(c3c(c(c(c(c23)[H])[H])[H])[H])[H])[H])([H])[H])[C@@](C([H])([H])[H])(C1([H])[H])[H])([H])[H])([H])[H])[H])([H])([H])[H]

>  <h>  (176) 
<NA>

>  <Training>  (176) 
True

>  <Success>  (176) 
True

>  <enamine_searched>  (176) 
False

>  <enamine_id>  (176) 
nan

$$$$

     RDKit          3D

 35 40  0  0  0  0  0  0  0  0999 V2000
   -8.4239   -3.8270  -23.7056 C   0  0  0  0  0  0  0  0  0  0  0  0
   -8.5299   -2.8342  -22.5574 C   0  0  1  0  0  0  0  0  0  0  0  0
   -7.2145   -2.5836  -21.8099 C   0  0  0  0  0  0  0  0  0  0  0  0
   -7.4939   -1.3379  -21.1270 N   0  0  0  0  0  0  0  0  0  0  0  0
   -6.6428   -0.8204  -20.1144 C   0  0  0  0  0  0  0  0  0  0  0  0
   -6.8727   -1.1692  -18.8064 C   0  0  0  0  0  0  0  0  0  0  0  0
   -6.0997   -0.7854  -17.7601 N   0  0  0  0  0  0  0  0  0  0  0  0
   -5.0727   -0.0122  -18.0130 C   0  0  0  0  0  0  0  0  0  0  0  0
   -4.7358    0.4508  -19.3163 C   0  0  0  0  0  0  0  0  0  0  0  0
   -3.6590    1.3517  -19.5266 C   0  0  0  0  0  0  0  0  0  0  0  0
   -3.3373    1.7602  -20.7894 C   0  0  0  0  0  0  0  0  0  0  0  0
   -4.0698    1.2900  -21.9003 C   0  0  0  0  0  0  0  0  0  0  0  0
   -5.1400    0.4471  -21.7200 C   0  0  0  0  0  0  0  0  0  0  0  0
   -5.5174    0.0194  -20.4143 C   0  0  0  0  0  0  0  0  0  0  0  0
   -8.4637   -0.5840  -21.7630 C   0  0  0  0  0  0  0  0  0  0  0  0
   -8.7659    0.5449  -21.4594 O   0  0  0  0  0  0  0  0  0  0  0  0
   -9.0592   -1.4244  -22.9236 C   0  0  1  0  0  0  0  0  0  0  0  0
   -8.5081   -0.8932  -24.2728 C   0  0  0  0  0  0  0  0  0  0  0  0
   -8.9306    0.4717  -24.5044 N   0  0  0  0  0  0  0  0  0  0  0  0
   -8.0685    1.3576  -25.2545 C   0  0  0  0  0  0  0  0  0  0  0  0
   -8.2670    1.2557  -26.7482 C   0  0  0  0  0  0  0  0  0  0  0  0
   -8.2342    0.1691  -27.6032 C   0  0  0  0  0  0  0  0  0  0  0  0
   -8.4899    0.7150  -28.8751 C   0  0  0  0  0  0  0  0  0  0  0  0
   -8.6846    2.0197  -28.8236 N   0  0  0  0  0  0  0  0  0  0  0  0
   -8.5357    2.3399  -27.5290 N   0  0  0  0  0  0  0  0  0  0  0  0
   -8.9225    3.6685  -27.0987 C   0  0  0  0  0  0  0  0  0  0  0  0
  -10.1978    0.8971  -24.2253 C   0  0  0  0  0  0  0  0  0  0  0  0
  -10.5865    2.0372  -24.4482 O   0  0  0  0  0  0  0  0  0  0  0  0
  -11.0973   -0.1311  -23.6130 C   0  0  0  0  0  0  0  0  0  0  0  0
  -12.4660    0.1347  -23.5973 C   0  0  0  0  0  0  0  0  0  0  0  0
  -13.3466   -0.7792  -23.0545 C   0  0  0  0  0  0  0  0  0  0  0  0
  -12.8180   -1.9672  -22.5609 C   0  0  0  0  0  0  0  0  0  0  0  0
  -13.6631   -2.8614  -22.0185 F   0  0  0  0  0  0  0  0  0  0  0  0
  -11.4685   -2.2625  -22.5732 C   0  0  0  0  0  0  0  0  0  0  0  0
  -10.5670   -1.2973  -23.0373 C   0  0  0  0  0  0  0  0  0  0  0  0
  2  1  1  6
  2  3  1  0
  3  4  1  0
  4  5  1  0
  5  6  2  0
  6  7  1  0
  7  8  2  0
  8  9  1  0
  9 10  2  0
 10 11  1  0
 11 12  2  0
 12 13  1  0
 13 14  2  0
  4 15  1  0
 15 16  2  0
 15 17  1  0
 17 18  1  6
 18 19  1  0
 19 20  1  0
 20 21  1  0
 21 22  2  0
 22 23  1  0
 23 24  2  0
 24 25  1  0
 25 26  1  0
 19 27  1  0
 27 28  2  0
 27 29  1  0
 29 30  2  0
 30 31  1  0
 31 32  2  0
 32 33  1  0
 32 34  1  0
 34 35  2  0
 17  2  1  0
 25 21  1  0
 35 29  1  0
 14  5  1  0
 35 17  1  0
 14  9  1  0
M  END
$$$$

     RDKit          3D

 22 24  0  0  0  0  0  0  0  0999 V2000
   -9.3018   -0.8496  -21.0345 O   0  0  0  0  0  0  0  0  0  0  0  0
   -8.2413   -1.3758  -21.3131 C   0  0  0  0  0  0  0  0  0  0  0  0
   -6.9912   -0.4693  -21.3551 C   0  0  0  0  0  0  0  0  0  0  0  0
   -6.0982   -0.3420  -20.1094 C   0  0  0  0  0  0  0  0  0  0  0  0
   -6.5196   -0.7530  -18.8287 C   0  0  0  0  0  0  0  0  0  0  0  0
   -5.7424   -0.6685  -17.7325 N   0  0  0  0  0  0  0  0  0  0  0  0
   -4.5156   -0.1295  -17.8556 C   0  0  0  0  0  0  0  0  0  0  0  0
   -4.0217    0.3768  -19.0625 C   0  0  0  0  0  0  0  0  0  0  0  0
   -2.7554    0.9922  -19.1324 C   0  0  0  0  0  0  0  0  0  0  0  0
   -2.2568    1.4201  -20.3666 C   0  0  0  0  0  0  0  0  0  0  0  0
   -3.0253    1.2590  -21.5259 C   0  0  0  0  0  0  0  0  0  0  0  0
   -4.3151    0.7159  -21.4438 C   0  0  0  0  0  0  0  0  0  0  0  0
   -4.8202    0.2540  -20.2194 C   0  0  0  0  0  0  0  0  0  0  0  0
   -8.2707   -2.6610  -21.8634 N   0  0  0  0  0  0  0  0  0  0  0  0
   -9.5581   -3.2697  -22.1901 C   0  0  0  0  0  0  0  0  0  0  0  0
  -10.0997   -2.5554  -23.4379 C   0  0  0  0  0  0  0  0  0  0  0  0
   -9.0553   -2.4304  -24.5945 C   0  0  0  0  0  0  0  0  0  0  0  0
   -9.5324   -1.3744  -25.6217 C   0  0  0  0  0  0  0  0  0  0  0  0
  -10.8605   -1.5140  -25.8925 F   0  0  0  0  0  0  0  0  0  0  0  0
   -8.8453   -1.4923  -26.7897 F   0  0  0  0  0  0  0  0  0  0  0  0
   -7.6280   -2.0793  -24.0752 C   0  0  0  0  0  0  0  0  0  0  0  0
   -7.2765   -2.9657  -22.8731 C   0  0  0  0  0  0  0  0  0  0  0  0
  1  2  2  0
  2  3  1  0
  3  4  1  0
  4  5  2  0
  5  6  1  0
  6  7  2  0
  7  8  1  0
  8  9  2  0
  9 10  1  0
 10 11  2  0
 11 12  1  0
 12 13  2  0
  2 14  1  0
 14 15  1  0
 15 16  1  0
 16 17  1  0
 17 18  1  0
 18 19  1  0
 18 20  1  0
 17 21  1  0
 21 22  1  0
 13  4  1  0
 22 14  1  0
 13  8  1  0
M  END
$$$$

     RDKit          3D

 20 22  0  0  0  0  0  0  0  0999 V2000
    5.3281   -1.9944   21.9661 O   0  0  0  0  0  0  0  0  0  0  0  0
    6.3544   -1.3643   22.1411 C   0  0  0  0  0  0  0  0  0  0  0  0
    6.8564   -0.3800   21.0656 C   0  0  0  0  0  0  0  0  0  0  0  0
    5.8596   -0.1931   19.9547 C   0  0  0  0  0  0  0  0  0  0  0  0
    6.0367   -0.8168   18.7491 C   0  0  0  0  0  0  0  0  0  0  0  0
    5.2307   -0.6828   17.6638 N   0  0  0  0  0  0  0  0  0  0  0  0
    4.1695    0.0750   17.8027 C   0  0  0  0  0  0  0  0  0  0  0  0
    3.8193    0.7280   19.0165 C   0  0  0  0  0  0  0  0  0  0  0  0
    2.6261    1.4819   19.1477 C   0  0  0  0  0  0  0  0  0  0  0  0
    2.3023    2.0926   20.3272 C   0  0  0  0  0  0  0  0  0  0  0  0
    3.1832    2.0022   21.4261 C   0  0  0  0  0  0  0  0  0  0  0  0
    4.3521    1.2871   21.3250 C   0  0  0  0  0  0  0  0  0  0  0  0
    4.6935    0.6102   20.1222 C   0  0  0  0  0  0  0  0  0  0  0  0
    7.0826   -1.4841   23.3116 N   0  0  0  0  0  0  0  0  0  0  0  0
    6.5837   -2.4666   24.2823 C   0  0  0  0  0  0  0  0  0  0  0  0
    6.9066   -3.9092   23.9478 C   0  0  0  0  0  0  0  0  0  0  0  0
    8.1501   -4.3560   23.7904 C   0  0  0  0  0  0  0  0  0  0  0  0
    9.3843   -3.5015   23.9695 C   0  0  0  0  0  0  0  0  0  0  0  0
    9.4569   -2.2800   23.0378 C   0  0  0  0  0  0  0  0  0  0  0  0
    8.4984   -1.1470   23.4154 C   0  0  0  0  0  0  0  0  0  0  0  0
  1  2  2  0
  2  3  1  0
  3  4  1  0
  4  5  2  0
  5  6  1  0
  6  7  2  0
  7  8  1  0
  8  9  2  0
  9 10  1  0
 10 11  2  0
 11 12  1  0
 12 13  2  0
  2 14  1  0
 14 15  1  0
 15 16  1  0
 16 17  2  0
 17 18  1  0
 18 19  1  0
 19 20  1  0
 13  4  1  0
 20 14  1  0
 13  8  1  0
M  END
$$$$

     RDKit          3D

 34 39  0  0  0  0  0  0  0  0999 V2000
    8.5235   -1.4119   23.9134 C   0  0  0  0  0  0  0  0  0  0  0  0
    8.4924   -0.8522   22.4921 C   0  0  1  0  0  0  0  0  0  0  0  0
    7.2109   -1.2596   21.7380 C   0  0  0  0  0  0  0  0  0  0  0  0
    6.9672   -0.1463   20.8510 N   0  0  0  0  0  0  0  0  0  0  0  0
    5.9365   -0.1051   19.8809 C   0  0  0  0  0  0  0  0  0  0  0  0
    6.0830   -0.7835   18.6986 C   0  0  0  0  0  0  0  0  0  0  0  0
    5.2465   -0.6689   17.6398 N   0  0  0  0  0  0  0  0  0  0  0  0
    4.1952    0.1041   17.7885 C   0  0  0  0  0  0  0  0  0  0  0  0
    3.8689    0.7851   18.9961 C   0  0  0  0  0  0  0  0  0  0  0  0
    2.6874    1.5631   19.1230 C   0  0  0  0  0  0  0  0  0  0  0  0
    2.3630    2.1581   20.3114 C   0  0  0  0  0  0  0  0  0  0  0  0
    3.2268    2.0298   21.4213 C   0  0  0  0  0  0  0  0  0  0  0  0
    4.3869    1.2990   21.3200 C   0  0  0  0  0  0  0  0  0  0  0  0
    4.7486    0.6638   20.0951 C   0  0  0  0  0  0  0  0  0  0  0  0
    7.7595    0.9550   21.0827 C   0  0  0  0  0  0  0  0  0  0  0  0
    7.7126    1.9611   20.4048 O   0  0  0  0  0  0  0  0  0  0  0  0
    8.5933    0.6984   22.3641 C   0  0  1  0  0  0  0  0  0  0  0  0
    7.9104    1.4351   23.5478 C   0  0  0  0  0  0  0  0  0  0  0  0
    7.9698    2.8763   23.3996 N   0  0  0  0  0  0  0  0  0  0  0  0
    6.8402    3.7278   23.7187 C   0  0  0  0  0  0  0  0  0  0  0  0
    6.2545    4.3152   22.4451 C   0  0  0  0  0  0  0  0  0  0  0  0
    5.0804    5.1607   22.7653 N   0  0  0  0  0  0  0  0  0  0  0  0
    5.3467    6.5525   23.3832 C   0  0  0  0  0  0  0  0  0  0  0  0
    4.6507    7.2677   22.1865 C   0  0  0  0  0  0  0  0  0  0  0  0
    4.3674    5.8455   21.6149 C   0  0  0  0  0  0  0  0  0  0  0  0
    9.0936    3.5224   22.9806 C   0  0  0  0  0  0  0  0  0  0  0  0
    9.2224    4.7367   23.0543 O   0  0  0  0  0  0  0  0  0  0  0  0
   10.1803    2.6614   22.4341 C   0  0  0  0  0  0  0  0  0  0  0  0
   11.3945    3.2786   22.1400 C   0  0  0  0  0  0  0  0  0  0  0  0
   12.5145    2.5187   21.8867 C   0  0  0  0  0  0  0  0  0  0  0  0
   12.3704    1.1286   21.8837 C   0  0  0  0  0  0  0  0  0  0  0  0
   13.7789    0.1408   21.6357 Cl  0  0  0  0  0  0  0  0  0  0  0  0
   11.1422    0.5082   22.0391 C   0  0  0  0  0  0  0  0  0  0  0  0
    9.9983    1.2760   22.2925 C   0  0  0  0  0  0  0  0  0  0  0  0
  2  1  1  1
  2  3  1  0
  3  4  1  0
  4  5  1  0
  5  6  2  0
  6  7  1  0
  7  8  2  0
  8  9  1  0
  9 10  2  0
 10 11  1  0
 11 12  2  0
 12 13  1  0
 13 14  2  0
  4 15  1  0
 15 16  2  0
 15 17  1  0
 17 18  1  1
 18 19  1  0
 19 20  1  0
 20 21  1  0
 21 22  1  0
 22 23  1  0
 23 24  1  0
 24 25  1  0
 19 26  1  0
 26 27  2  0
 26 28  1  0
 28 29  2  0
 29 30  1  0
 30 31  2  0
 31 32  1  0
 31 33  1  0
 33 34  2  0
 17  2  1  0
 25 22  1  0
 34 28  1  0
 14  5  1  0
 34 17  1  0
 14  9  1  0
M  CHG  1  22   1
M  END
$$$$

     RDKit          3D

 21 23  0  0  0  0  0  0  0  0999 V2000
  -13.8181   -2.8504  -22.2636 C   0  0  0  0  0  0  0  0  0  0  0  0
  -12.4837   -2.5842  -22.9672 C   0  0  0  0  0  0  0  0  0  0  0  0
  -12.6069   -3.0050  -24.4370 C   0  0  0  0  0  0  0  0  0  0  0  0
  -12.2055   -1.0667  -22.8954 C   0  0  0  0  0  0  0  0  0  0  0  0
  -10.7843   -0.7000  -23.3101 C   0  0  0  0  0  0  0  0  0  0  0  0
   -9.8104   -1.5061  -22.5840 N   0  0  0  0  0  0  0  0  0  0  0  0
   -8.8709   -0.8548  -21.8214 C   0  0  0  0  0  0  0  0  0  0  0  0
   -8.9753    0.3278  -21.5512 O   0  0  0  0  0  0  0  0  0  0  0  0
   -7.6453   -1.6683  -21.3861 C   0  0  0  0  0  0  0  0  0  0  0  0
   -6.8310   -1.0517  -20.2817 C   0  0  0  0  0  0  0  0  0  0  0  0
   -7.1735   -1.3147  -18.9816 C   0  0  0  0  0  0  0  0  0  0  0  0
   -6.4770   -0.9070  -17.8886 N   0  0  0  0  0  0  0  0  0  0  0  0
   -5.3978   -0.1938  -18.0964 C   0  0  0  0  0  0  0  0  0  0  0  0
   -4.9674    0.2304  -19.3833 C   0  0  0  0  0  0  0  0  0  0  0  0
   -3.8577    1.0976  -19.5568 C   0  0  0  0  0  0  0  0  0  0  0  0
   -3.4091    1.4050  -20.8133 C   0  0  0  0  0  0  0  0  0  0  0  0
   -4.0899    0.9069  -21.9520 C   0  0  0  0  0  0  0  0  0  0  0  0
   -5.1982    0.1084  -21.8084 C   0  0  0  0  0  0  0  0  0  0  0  0
   -5.6785   -0.2414  -20.5171 C   0  0  0  0  0  0  0  0  0  0  0  0
   -9.9547   -2.9455  -22.7365 C   0  0  0  0  0  0  0  0  0  0  0  0
  -11.3538   -3.4302  -22.3386 C   0  0  0  0  0  0  0  0  0  0  0  0
  1  2  1  0
  2  3  1  0
  2  4  1  0
  4  5  1  0
  5  6  1  0
  6  7  1  0
  7  8  2  0
  7  9  1  0
  9 10  1  0
 10 11  2  0
 11 12  1  0
 12 13  2  0
 13 14  1  0
 14 15  2  0
 15 16  1  0
 16 17  2  0
 17 18  1  0
 18 19  2  0
  6 20  1  0
 20 21  1  0
 21  2  1  0
 19 10  1  0
 19 14  1  0
M  END
$$$$

     RDKit          3D

 38 42  0  0  0  0  0  0  0  0999 V2000
   -7.0184    3.6115  -22.4546 C   0  0  0  0  0  0  0  0  0  0  0  0
   -7.7049    2.6071  -23.2337 N   0  0  0  0  0  0  0  0  0  0  0  0
   -7.4604    2.5308  -24.5551 C   0  0  0  0  0  0  0  0  0  0  0  0
   -6.6981    3.2876  -25.1500 O   0  0  0  0  0  0  0  0  0  0  0  0
   -8.1599    1.4194  -25.3425 C   0  0  0  0  0  0  0  0  0  0  0  0
   -8.9819    0.5094  -24.5780 N   0  0  0  0  0  0  0  0  0  0  0  0
   -8.4978   -0.8335  -24.3101 C   0  0  0  0  0  0  0  0  0  0  0  0
   -9.0530   -1.3819  -22.9655 C   0  0  2  0  0  0  0  0  0  0  0  0
   -8.4607   -0.5348  -21.8053 C   0  0  0  0  0  0  0  0  0  0  0  0
   -8.7428    0.6072  -21.5040 O   0  0  0  0  0  0  0  0  0  0  0  0
   -7.5032   -1.2782  -21.1596 N   0  0  0  0  0  0  0  0  0  0  0  0
   -6.6595   -0.7807  -20.1326 C   0  0  0  0  0  0  0  0  0  0  0  0
   -6.8666   -1.1817  -18.8365 C   0  0  0  0  0  0  0  0  0  0  0  0
   -6.0843   -0.8244  -17.7905 N   0  0  0  0  0  0  0  0  0  0  0  0
   -5.0549   -0.0516  -18.0321 C   0  0  0  0  0  0  0  0  0  0  0  0
   -4.7312    0.4447  -19.3272 C   0  0  0  0  0  0  0  0  0  0  0  0
   -3.6381    1.3235  -19.5370 C   0  0  0  0  0  0  0  0  0  0  0  0
   -3.3152    1.7469  -20.7943 C   0  0  0  0  0  0  0  0  0  0  0  0
   -4.0591    1.2913  -21.9046 C   0  0  0  0  0  0  0  0  0  0  0  0
   -5.1381    0.4583  -21.7315 C   0  0  0  0  0  0  0  0  0  0  0  0
   -5.5246    0.0400  -20.4260 C   0  0  0  0  0  0  0  0  0  0  0  0
   -7.2082   -2.5278  -21.8172 C   0  0  0  0  0  0  0  0  0  0  0  0
   -8.4871   -2.7721  -22.6146 C   0  0  2  0  0  0  0  0  0  0  0  0
   -8.2938   -3.7151  -23.7908 C   0  0  0  0  0  0  0  0  0  0  0  0
   -7.7329   -5.2769  -23.1617 S   0  0  0  0  0  0  0  0  0  0  0  0
   -8.5524   -5.6611  -22.0277 O   0  0  0  0  0  0  0  0  0  0  0  0
   -6.2866   -5.1943  -23.0012 O   0  0  0  0  0  0  0  0  0  0  0  0
   -8.1524   -6.2553  -24.4417 N   0  0  0  0  0  0  0  0  0  0  0  0
   -7.2547   -6.2481  -25.5911 C   0  0  0  0  0  0  0  0  0  0  0  0
  -10.5690   -1.2905  -23.0533 C   0  0  0  0  0  0  0  0  0  0  0  0
  -11.4662   -2.2839  -22.6214 C   0  0  0  0  0  0  0  0  0  0  0  0
  -12.8248   -2.0215  -22.6091 C   0  0  0  0  0  0  0  0  0  0  0  0
  -13.6641   -2.9564  -22.1197 F   0  0  0  0  0  0  0  0  0  0  0  0
  -13.3578   -0.8264  -23.0832 C   0  0  0  0  0  0  0  0  0  0  0  0
  -12.4857    0.1255  -23.5767 C   0  0  0  0  0  0  0  0  0  0  0  0
  -11.1117   -0.1128  -23.5900 C   0  0  0  0  0  0  0  0  0  0  0  0
  -10.2452    0.9163  -24.2502 C   0  0  0  0  0  0  0  0  0  0  0  0
  -10.6471    2.0491  -24.4826 O   0  0  0  0  0  0  0  0  0  0  0  0
  1  2  1  0
  2  3  1  0
  3  4  2  0
  3  5  1  0
  5  6  1  0
  6  7  1  0
  8  7  1  6
  8  9  1  0
  9 10  2  0
  9 11  1  0
 11 12  1  0
 12 13  2  0
 13 14  1  0
 14 15  2  0
 15 16  1  0
 16 17  2  0
 17 18  1  0
 18 19  2  0
 19 20  1  0
 20 21  2  0
 11 22  1  0
 22 23  1  0
 23 24  1  6
 24 25  1  0
 25 26  2  0
 25 27  2  0
 25 28  1  0
 28 29  1  0
  8 30  1  0
 30 31  2  0
 31 32  1  0
 32 33  1  0
 32 34  2  0
 34 35  1  0
 35 36  2  0
 36 37  1  0
 37 38  2  0
 37  6  1  0
 23  8  1  0
 36 30  1  0
 21 12  1  0
 21 16  1  0
M  END
$$$$

     RDKit          3D

 40 45  0  0  0  0  0  0  0  0999 V2000
   -7.0232    3.6222  -22.4634 C   0  0  0  0  0  0  0  0  0  0  0  0
   -7.7403    2.6360  -23.2375 N   0  0  0  0  0  0  0  0  0  0  0  0
   -7.4736    2.5141  -24.5532 C   0  0  0  0  0  0  0  0  0  0  0  0
   -6.7128    3.2526  -25.1626 O   0  0  0  0  0  0  0  0  0  0  0  0
   -8.1595    1.3743  -25.3238 C   0  0  0  0  0  0  0  0  0  0  0  0
   -8.9745    0.4591  -24.5566 N   0  0  0  0  0  0  0  0  0  0  0  0
   -8.4956   -0.8904  -24.2835 C   0  0  0  0  0  0  0  0  0  0  0  0
   -9.0705   -1.4333  -22.9407 C   0  0  2  0  0  0  0  0  0  0  0  0
   -8.4600   -0.5777  -21.7933 C   0  0  0  0  0  0  0  0  0  0  0  0
   -8.7286    0.5750  -21.5117 O   0  0  0  0  0  0  0  0  0  0  0  0
   -7.4896   -1.3169  -21.1629 N   0  0  0  0  0  0  0  0  0  0  0  0
   -6.6538   -0.7997  -20.1313 C   0  0  0  0  0  0  0  0  0  0  0  0
   -6.8725   -1.1714  -18.8270 C   0  0  0  0  0  0  0  0  0  0  0  0
   -6.0957   -0.8011  -17.7796 N   0  0  0  0  0  0  0  0  0  0  0  0
   -5.0658   -0.0306  -18.0277 C   0  0  0  0  0  0  0  0  0  0  0  0
   -4.7367    0.4531  -19.3246 C   0  0  0  0  0  0  0  0  0  0  0  0
   -3.6466    1.3390  -19.5316 C   0  0  0  0  0  0  0  0  0  0  0  0
   -3.3219    1.7552  -20.7915 C   0  0  0  0  0  0  0  0  0  0  0  0
   -4.0586    1.2911  -21.9042 C   0  0  0  0  0  0  0  0  0  0  0  0
   -5.1374    0.4577  -21.7294 C   0  0  0  0  0  0  0  0  0  0  0  0
   -5.5251    0.0339  -20.4256 C   0  0  0  0  0  0  0  0  0  0  0  0
   -7.2262   -2.5853  -21.8201 C   0  0  0  0  0  0  0  0  0  0  0  0
   -8.5507   -2.8394  -22.5415 C   0  0  2  0  0  0  0  0  0  0  0  0
   -8.5085   -3.8644  -23.6830 C   0  0  0  0  0  0  0  0  0  0  0  0
   -8.2529   -5.2216  -23.2476 N   0  0  0  0  0  0  0  0  0  0  0  0
   -6.9737   -5.6947  -23.1597 C   0  0  0  0  0  0  0  0  0  0  0  0
   -6.6877   -6.8963  -22.4703 C   0  0  0  0  0  0  0  0  0  0  0  0
   -5.4637   -7.3732  -22.3483 N   0  0  0  0  0  0  0  0  0  0  0  0
   -4.4798   -6.6723  -22.9412 C   0  0  0  0  0  0  0  0  0  0  0  0
   -4.7643   -5.5178  -23.6524 C   0  0  0  0  0  0  0  0  0  0  0  0
   -6.0003   -5.0121  -23.7569 N   0  0  0  0  0  0  0  0  0  0  0  0
  -10.5807   -1.3167  -23.0468 C   0  0  0  0  0  0  0  0  0  0  0  0
  -11.4741   -2.2984  -22.5948 C   0  0  0  0  0  0  0  0  0  0  0  0
  -12.8309   -2.0285  -22.5596 C   0  0  0  0  0  0  0  0  0  0  0  0
  -13.9085   -3.1901  -21.8359 Cl  0  0  0  0  0  0  0  0  0  0  0  0
  -13.3583   -0.8348  -23.0519 C   0  0  0  0  0  0  0  0  0  0  0  0
  -12.4915    0.1028  -23.5744 C   0  0  0  0  0  0  0  0  0  0  0  0
  -11.1208   -0.1460  -23.5974 C   0  0  0  0  0  0  0  0  0  0  0  0
  -10.2391    0.8749  -24.2428 C   0  0  0  0  0  0  0  0  0  0  0  0
  -10.6278    2.0106  -24.4737 O   0  0  0  0  0  0  0  0  0  0  0  0
  1  2  1  0
  2  3  1  0
  3  4  2  0
  3  5  1  0
  5  6  1  0
  6  7  1  0
  8  7  1  6
  8  9  1  0
  9 10  2  0
  9 11  1  0
 11 12  1  0
 12 13  2  0
 13 14  1  0
 14 15  2  0
 15 16  1  0
 16 17  2  0
 17 18  1  0
 18 19  2  0
 19 20  1  0
 20 21  2  0
 11 22  1  0
 22 23  1  0
 23 24  1  6
 24 25  1  0
 25 26  1  0
 26 27  2  0
 27 28  1  0
 28 29  2  0
 29 30  1  0
 30 31  2  0
  8 32  1  0
 32 33  2  0
 33 34  1  0
 34 35  1  0
 34 36  2  0
 36 37  1  0
 37 38  2  0
 38 39  1  0
 39 40  2  0
 39  6  1  0
 23  8  1  0
 31 26  1  0
 38 32  1  0
 21 12  1  0
 21 16  1  0
M  END
$$$$

     RDKit          3D

 34 39  0  0  0  0  0  0  0  0999 V2000
    7.8885   -1.6407   24.2540 C   0  0  0  0  0  0  0  0  0  0  0  0
    8.0289   -1.2408   22.7868 C   0  0  1  0  0  0  0  0  0  0  0  0
    6.7103   -1.3663   22.0036 C   0  0  0  0  0  0  0  0  0  0  0  0
    6.8240   -0.3397   20.9947 N   0  0  0  0  0  0  0  0  0  0  0  0
    5.8908   -0.1576   19.9482 C   0  0  0  0  0  0  0  0  0  0  0  0
    6.1290   -0.7267   18.7269 C   0  0  0  0  0  0  0  0  0  0  0  0
    5.3156   -0.5924   17.6513 N   0  0  0  0  0  0  0  0  0  0  0  0
    4.2365    0.1370   17.8016 C   0  0  0  0  0  0  0  0  0  0  0  0
    3.8653    0.7765   19.0200 C   0  0  0  0  0  0  0  0  0  0  0  0
    2.6965    1.5742   19.1332 C   0  0  0  0  0  0  0  0  0  0  0  0
    2.3443    2.1254   20.3327 C   0  0  0  0  0  0  0  0  0  0  0  0
    3.1590    1.9308   21.4728 C   0  0  0  0  0  0  0  0  0  0  0  0
    4.3118    1.1884   21.3852 C   0  0  0  0  0  0  0  0  0  0  0  0
    4.7015    0.6068   20.1464 C   0  0  0  0  0  0  0  0  0  0  0  0
    7.8154    0.5874   21.2226 C   0  0  0  0  0  0  0  0  0  0  0  0
    8.0408    1.5332   20.4994 O   0  0  0  0  0  0  0  0  0  0  0  0
    8.5608    0.2031   22.5207 C   0  0  1  0  0  0  0  0  0  0  0  0
    8.1582    1.1448   23.6948 C   0  0  0  0  0  0  0  0  0  0  0  0
    8.7267    2.4735   23.5988 N   0  0  0  0  0  0  0  0  0  0  0  0
    7.9361    3.6202   24.0521 C   0  0  0  0  0  0  0  0  0  0  0  0
    7.1836    4.2981   22.9383 C   0  0  0  0  0  0  0  0  0  0  0  0
    5.8732    4.1190   22.4457 C   0  0  0  0  0  0  0  0  0  0  0  0
    5.6539    4.8044   21.3260 N   0  0  0  0  0  0  0  0  0  0  0  0
    6.8171    5.4323   21.1082 N   0  0  0  0  0  0  0  0  0  0  0  0
    7.7505    5.1687   22.0467 C   0  0  0  0  0  0  0  0  0  0  0  0
    9.9942    2.7038   23.1394 C   0  0  0  0  0  0  0  0  0  0  0  0
   10.5037    3.8191   23.1690 O   0  0  0  0  0  0  0  0  0  0  0  0
   10.7309    1.5078   22.6004 C   0  0  0  0  0  0  0  0  0  0  0  0
   12.1124    1.6026   22.4226 C   0  0  0  0  0  0  0  0  0  0  0  0
   12.8439    0.5227   21.9691 C   0  0  0  0  0  0  0  0  0  0  0  0
   12.1613   -0.6402   21.6340 C   0  0  0  0  0  0  0  0  0  0  0  0
   12.8550   -1.6947   21.1742 F   0  0  0  0  0  0  0  0  0  0  0  0
   10.7954   -0.7516   21.7640 C   0  0  0  0  0  0  0  0  0  0  0  0
   10.0605    0.3090   22.3100 C   0  0  0  0  0  0  0  0  0  0  0  0
  2  1  1  1
  2  3  1  0
  3  4  1  0
  4  5  1  0
  5  6  2  0
  6  7  1  0
  7  8  2  0
  8  9  1  0
  9 10  2  0
 10 11  1  0
 11 12  2  0
 12 13  1  0
 13 14  2  0
  4 15  1  0
 15 16  2  0
 15 17  1  0
 17 18  1  1
 18 19  1  0
 19 20  1  0
 20 21  1  0
 21 22  1  0
 22 23  2  0
 23 24  1  0
 24 25  1  0
 19 26  1  0
 26 27  2  0
 26 28  1  0
 28 29  2  0
 29 30  1  0
 30 31  2  0
 31 32  1  0
 31 33  1  0
 33 34  2  0
 17  2  1  0
 25 21  2  0
 34 28  1  0
 14  5  1  0
 34 17  1  0
 14  9  1  0
M  END
>  <cnnaffinities>  (184) 
[6.23666]

>  <score>  (184) 
6.23666

>  <index>  (184) 
91

>  <Smiles>  (184) 
C([C@]1(C(N(c2c(nc(c3c(c(c(c(c23)[H])[H])[H])[H])[H])[H])C(=O)[C@]21C(N(C(c1c(nn(c1[H])[H])[H])([H])[H])C(=O)c1c(c(c(F)c(c21)[H])[H])[H])([H])[H])([H])[H])[H])([H])([H])[H]

>  <h>  (184) 
<NA>

>  <Training>  (184) 
True

>  <Success>  (184) 
True

>  <enamine_searched>  (184) 
False

>  <enamine_id>  (184) 
nan

$$$$

     RDKit          3D

 36 41  0  0  0  0  0  0  0  0999 V2000
  -10.3168   -5.1723  -23.9623 C   0  0  0  0  0  0  0  0  0  0  0  0
   -9.5875   -4.0497  -24.3878 O   0  0  0  0  0  0  0  0  0  0  0  0
   -8.3636   -3.8437  -23.7130 C   0  0  0  0  0  0  0  0  0  0  0  0
   -8.5174   -2.8520  -22.5626 C   0  0  1  0  0  0  0  0  0  0  0  0
   -7.2138   -2.5959  -21.8005 C   0  0  0  0  0  0  0  0  0  0  0  0
   -7.4957   -1.3448  -21.1250 N   0  0  0  0  0  0  0  0  0  0  0  0
   -6.6418   -0.8262  -20.1117 C   0  0  0  0  0  0  0  0  0  0  0  0
   -6.8635   -1.1813  -18.8019 C   0  0  0  0  0  0  0  0  0  0  0  0
   -6.0821   -0.8069  -17.7615 N   0  0  0  0  0  0  0  0  0  0  0  0
   -5.0564   -0.0355  -18.0228 C   0  0  0  0  0  0  0  0  0  0  0  0
   -4.7285    0.4353  -19.3260 C   0  0  0  0  0  0  0  0  0  0  0  0
   -3.6564    1.3428  -19.5338 C   0  0  0  0  0  0  0  0  0  0  0  0
   -3.3476    1.7674  -20.7957 C   0  0  0  0  0  0  0  0  0  0  0  0
   -4.0779    1.2944  -21.9084 C   0  0  0  0  0  0  0  0  0  0  0  0
   -5.1401    0.4381  -21.7272 C   0  0  0  0  0  0  0  0  0  0  0  0
   -5.5139    0.0054  -20.4201 C   0  0  0  0  0  0  0  0  0  0  0  0
   -8.4415   -0.5861  -21.7819 C   0  0  0  0  0  0  0  0  0  0  0  0
   -8.6979    0.5662  -21.5060 O   0  0  0  0  0  0  0  0  0  0  0  0
   -9.0546   -1.4394  -22.9309 C   0  0  1  0  0  0  0  0  0  0  0  0
   -8.5072   -0.9114  -24.2835 C   0  0  0  0  0  0  0  0  0  0  0  0
   -8.9669    0.4417  -24.5651 N   0  0  0  0  0  0  0  0  0  0  0  0
   -8.1446    1.3519  -25.3466 C   0  0  0  0  0  0  0  0  0  0  0  0
   -7.7960    2.6481  -24.6411 C   0  0  0  0  0  0  0  0  0  0  0  0
   -7.8488    3.9644  -25.1632 C   0  0  0  0  0  0  0  0  0  0  0  0
   -7.4842    4.8777  -24.2692 N   0  0  0  0  0  0  0  0  0  0  0  0
   -7.2067    4.1688  -23.1710 N   0  0  0  0  0  0  0  0  0  0  0  0
   -7.3944    2.8382  -23.3341 C   0  0  0  0  0  0  0  0  0  0  0  0
  -10.2245    0.8694  -24.2372 C   0  0  0  0  0  0  0  0  0  0  0  0
  -10.6165    2.0066  -24.4579 O   0  0  0  0  0  0  0  0  0  0  0  0
  -11.1061   -0.1580  -23.6008 C   0  0  0  0  0  0  0  0  0  0  0  0
  -12.4764    0.0944  -23.5802 C   0  0  0  0  0  0  0  0  0  0  0  0
  -13.3487   -0.8361  -23.0545 C   0  0  0  0  0  0  0  0  0  0  0  0
  -12.8188   -2.0261  -22.5595 C   0  0  0  0  0  0  0  0  0  0  0  0
  -13.8879   -3.1973  -21.8340 Cl  0  0  0  0  0  0  0  0  0  0  0  0
  -11.4613   -2.2948  -22.5750 C   0  0  0  0  0  0  0  0  0  0  0  0
  -10.5660   -1.3213  -23.0353 C   0  0  0  0  0  0  0  0  0  0  0  0
  1  2  1  0
  2  3  1  0
  4  3  1  6
  4  5  1  0
  5  6  1  0
  6  7  1  0
  7  8  2  0
  8  9  1  0
  9 10  2  0
 10 11  1  0
 11 12  2  0
 12 13  1  0
 13 14  2  0
 14 15  1  0
 15 16  2  0
  6 17  1  0
 17 18  2  0
 17 19  1  0
 19 20  1  6
 20 21  1  0
 21 22  1  0
 22 23  1  0
 23 24  1  0
 24 25  2  0
 25 26  1  0
 26 27  1  0
 21 28  1  0
 28 29  2  0
 28 30  1  0
 30 31  2  0
 31 32  1  0
 32 33  2  0
 33 34  1  0
 33 35  1  0
 35 36  2  0
 19  4  1  0
 27 23  2  0
 36 30  1  0
 16  7  1  0
 36 19  1  0
 16 11  1  0
M  END
$$$$

     RDKit          3D

 27 30  0  0  0  0  0  0  0  0999 V2000
    7.8569    1.6882   20.3088 O   0  0  0  0  0  0  0  0  0  0  0  0
    7.7529    0.8898   21.2167 C   0  0  0  0  0  0  0  0  0  0  0  0
    6.8583   -0.3558   21.0688 C   0  0  0  0  0  0  0  0  0  0  0  0
    5.8579   -0.1981   19.9587 C   0  0  0  0  0  0  0  0  0  0  0  0
    6.0453   -0.8049   18.7452 C   0  0  0  0  0  0  0  0  0  0  0  0
    5.2363   -0.6718   17.6599 N   0  0  0  0  0  0  0  0  0  0  0  0
    4.1689    0.0781   17.8028 C   0  0  0  0  0  0  0  0  0  0  0  0
    3.8202    0.7320   19.0181 C   0  0  0  0  0  0  0  0  0  0  0  0
    2.6266    1.4827   19.1486 C   0  0  0  0  0  0  0  0  0  0  0  0
    2.3023    2.0942   20.3257 C   0  0  0  0  0  0  0  0  0  0  0  0
    3.1891    2.0022   21.4237 C   0  0  0  0  0  0  0  0  0  0  0  0
    4.3613    1.2923   21.3310 C   0  0  0  0  0  0  0  0  0  0  0  0
    4.6969    0.6138   20.1252 C   0  0  0  0  0  0  0  0  0  0  0  0
    8.4943    1.0619   22.3802 N   0  0  0  0  0  0  0  0  0  0  0  0
    9.5066    2.0553   22.2855 C   0  0  0  0  0  0  0  0  0  0  0  0
   10.7970    1.7635   22.1373 C   0  0  0  0  0  0  0  0  0  0  0  0
   11.3377    0.3938   22.1884 C   0  0  0  0  0  0  0  0  0  0  0  0
   11.2098   -0.4429   23.2199 C   0  0  0  0  0  0  0  0  0  0  0  0
   10.6075   -0.0516   24.5054 C   0  0  0  0  0  0  0  0  0  0  0  0
    9.3612    0.3989   24.6600 C   0  0  0  0  0  0  0  0  0  0  0  0
    8.2397    0.3163   23.6397 C   0  0  1  0  0  0  0  0  0  0  0  0
    6.9184    0.7619   24.2569 C   0  0  0  0  0  0  0  0  0  0  0  0
    6.6564    2.1190   24.4335 C   0  0  0  0  0  0  0  0  0  0  0  0
    5.4611    2.5386   25.0039 C   0  0  0  0  0  0  0  0  0  0  0  0
    4.5135    1.6011   25.4096 C   0  0  0  0  0  0  0  0  0  0  0  0
    4.7770    0.2419   25.2571 C   0  0  0  0  0  0  0  0  0  0  0  0
    5.9771   -0.1726   24.6870 C   0  0  0  0  0  0  0  0  0  0  0  0
  1  2  2  0
  2  3  1  0
  3  4  1  0
  4  5  2  0
  5  6  1  0
  6  7  2  0
  7  8  1  0
  8  9  2  0
  9 10  1  0
 10 11  2  0
 11 12  1  0
 12 13  2  0
  2 14  1  0
 14 15  1  0
 15 16  2  3
 16 17  1  0
 17 18  2  3
 18 19  1  0
 19 20  2  3
 20 21  1  0
 21 22  1  1
 22 23  2  0
 23 24  1  0
 24 25  2  0
 25 26  1  0
 26 27  2  0
 13  4  1  0
 21 14  1  0
 27 22  1  0
 13  8  1  0
M  END
$$$$

     RDKit          3D

 32 36  0  0  0  0  0  0  0  0999 V2000
    5.3284    6.4695   23.5504 C   0  0  0  0  0  0  0  0  0  0  0  0
    5.0629    5.2163   22.8148 N   0  0  0  0  0  0  0  0  0  0  0  0
    6.2962    4.4249   22.5027 C   0  0  0  0  0  0  0  0  0  0  0  0
    6.9223    3.7690   23.7438 C   0  0  0  0  0  0  0  0  0  0  0  0
    8.0082    2.8813   23.3674 N   0  0  0  0  0  0  0  0  0  0  0  0
    7.9084    1.4450   23.5394 C   0  0  0  0  0  0  0  0  0  0  0  0
    8.5553    0.6784   22.3450 C   0  0  2  0  0  0  0  0  0  0  0  0
    7.6669    0.9489   21.0994 C   0  0  0  0  0  0  0  0  0  0  0  0
    7.5943    1.9676   20.4476 O   0  0  0  0  0  0  0  0  0  0  0  0
    6.8993   -0.1681   20.8570 N   0  0  0  0  0  0  0  0  0  0  0  0
    5.8790   -0.1327   19.8827 C   0  0  0  0  0  0  0  0  0  0  0  0
    6.0384   -0.8063   18.7005 C   0  0  0  0  0  0  0  0  0  0  0  0
    5.2083   -0.6839   17.6403 N   0  0  0  0  0  0  0  0  0  0  0  0
    4.1572    0.0903   17.7879 C   0  0  0  0  0  0  0  0  0  0  0  0
    3.8228    0.7613   18.9987 C   0  0  0  0  0  0  0  0  0  0  0  0
    2.6394    1.5350   19.1308 C   0  0  0  0  0  0  0  0  0  0  0  0
    2.3210    2.1309   20.3201 C   0  0  0  0  0  0  0  0  0  0  0  0
    3.1910    2.0144   21.4258 C   0  0  0  0  0  0  0  0  0  0  0  0
    4.3542    1.2922   21.3193 C   0  0  0  0  0  0  0  0  0  0  0  0
    4.7019    0.6460   20.0950 C   0  0  0  0  0  0  0  0  0  0  0  0
    7.1587   -1.2920   21.7246 C   0  0  0  0  0  0  0  0  0  0  0  0
    8.4254   -0.8711   22.4917 C   0  0  2  0  0  0  0  0  0  0  0  0
    8.4687   -1.4030   23.9193 C   0  0  0  0  0  0  0  0  0  0  0  0
    9.9899    1.2013   22.2029 C   0  0  0  0  0  0  0  0  0  0  0  0
   11.0923    0.3990   21.7746 C   0  0  0  0  0  0  0  0  0  0  0  0
   12.3038    0.9865   21.7311 C   0  0  0  0  0  0  0  0  0  0  0  0
   14.4347    1.2082   21.9115 F   0  0  0  0  0  0  0  0  0  0  0  0
   12.5600    2.3138   21.9208 C   0  0  0  0  0  0  0  0  0  0  0  0
   11.4856    3.1337   22.2290 C   0  0  0  0  0  0  0  0  0  0  0  0
   10.2393    2.5604   22.4525 C   0  0  0  0  0  0  0  0  0  0  0  0
    9.1803    3.4716   23.0030 C   0  0  0  0  0  0  0  0  0  0  0  0
    9.3652    4.6765   23.1156 O   0  0  0  0  0  0  0  0  0  0  0  0
  1  2  1  0
  2  3  1  0
  3  4  1  0
  4  5  1  0
  5  6  1  0
  7  6  1  1
  7  8  1  0
  8  9  2  0
  8 10  1  0
 10 11  1  0
 11 12  2  0
 12 13  1  0
 13 14  2  0
 14 15  1  0
 15 16  2  0
 16 17  1  0
 17 18  2  0
 18 19  1  0
 19 20  2  0
 10 21  1  0
 21 22  1  0
 22 23  1  1
  7 24  1  0
 24 25  2  0
 25 26  1  0
 26 27  1  0
 26 28  2  0
 28 29  1  0
 29 30  2  0
 30 31  1  0
 31 32  2  0
 31  5  1  0
 22  7  1  0
 30 24  1  0
 20 11  1  0
 20 15  1  0
M  CHG  1   2   1
M  END
$$$$

     RDKit          3D

 36 41  0  0  0  0  0  0  0  0999 V2000
   -7.6702    4.5240  -27.1889 C   0  0  0  0  0  0  0  0  0  0  0  0
   -8.9089    3.6399  -27.1676 C   0  0  0  0  0  0  0  0  0  0  0  0
   -8.5912    2.2679  -27.5454 N   0  0  0  0  0  0  0  0  0  0  0  0
   -8.6852    1.9370  -28.8417 N   0  0  0  0  0  0  0  0  0  0  0  0
   -8.4172    0.6417  -28.8890 C   0  0  0  0  0  0  0  0  0  0  0  0
   -8.1319    0.1258  -27.6054 C   0  0  0  0  0  0  0  0  0  0  0  0
   -8.2434    1.2144  -26.7555 C   0  0  0  0  0  0  0  0  0  0  0  0
   -8.0649    1.3511  -25.2607 C   0  0  0  0  0  0  0  0  0  0  0  0
   -8.9167    0.4617  -24.5024 N   0  0  0  0  0  0  0  0  0  0  0  0
   -8.5012   -0.9076  -24.2776 C   0  0  0  0  0  0  0  0  0  0  0  0
   -9.0574   -1.4358  -22.9277 C   0  0  2  0  0  0  0  0  0  0  0  0
   -8.4582   -0.5822  -21.7657 C   0  0  0  0  0  0  0  0  0  0  0  0
   -8.7417    0.5517  -21.4622 O   0  0  0  0  0  0  0  0  0  0  0  0
   -7.4917   -1.3400  -21.1274 N   0  0  0  0  0  0  0  0  0  0  0  0
   -6.6441   -0.8212  -20.1093 C   0  0  0  0  0  0  0  0  0  0  0  0
   -6.8598   -1.1843  -18.8034 C   0  0  0  0  0  0  0  0  0  0  0  0
   -6.0728   -0.8223  -17.7608 N   0  0  0  0  0  0  0  0  0  0  0  0
   -5.0415   -0.0571  -18.0225 C   0  0  0  0  0  0  0  0  0  0  0  0
   -4.7198    0.4248  -19.3212 C   0  0  0  0  0  0  0  0  0  0  0  0
   -3.6440    1.3283  -19.5250 C   0  0  0  0  0  0  0  0  0  0  0  0
   -3.3369    1.7562  -20.7873 C   0  0  0  0  0  0  0  0  0  0  0  0
   -4.0733    1.2890  -21.9000 C   0  0  0  0  0  0  0  0  0  0  0  0
   -5.1379    0.4430  -21.7223 C   0  0  0  0  0  0  0  0  0  0  0  0
   -5.5109    0.0059  -20.4166 C   0  0  0  0  0  0  0  0  0  0  0  0
   -7.2101   -2.5864  -21.8146 C   0  0  0  0  0  0  0  0  0  0  0  0
   -8.5252   -2.8451  -22.5586 C   0  0  2  0  0  0  0  0  0  0  0  0
   -8.4267   -3.8385  -23.7068 C   0  0  0  0  0  0  0  0  0  0  0  0
  -10.5678   -1.3060  -23.0468 C   0  0  0  0  0  0  0  0  0  0  0  0
  -11.4754   -2.2846  -22.6224 C   0  0  0  0  0  0  0  0  0  0  0  0
  -12.8231   -1.9907  -22.6261 C   0  0  0  0  0  0  0  0  0  0  0  0
  -13.6848   -2.9051  -22.1470 F   0  0  0  0  0  0  0  0  0  0  0  0
  -13.3426   -0.7899  -23.0932 C   0  0  0  0  0  0  0  0  0  0  0  0
  -12.4556    0.1431  -23.5876 C   0  0  0  0  0  0  0  0  0  0  0  0
  -11.0869   -0.1192  -23.5910 C   0  0  0  0  0  0  0  0  0  0  0  0
  -10.1730    0.8991  -24.1993 C   0  0  0  0  0  0  0  0  0  0  0  0
  -10.5467    2.0457  -24.4192 O   0  0  0  0  0  0  0  0  0  0  0  0
  1  2  1  0
  2  3  1  0
  3  4  1  0
  4  5  2  0
  5  6  1  0
  6  7  2  0
  7  8  1  0
  8  9  1  0
  9 10  1  0
 11 10  1  6
 11 12  1  0
 12 13  2  0
 12 14  1  0
 14 15  1  0
 15 16  2  0
 16 17  1  0
 17 18  2  0
 18 19  1  0
 19 20  2  0
 20 21  1  0
 21 22  2  0
 22 23  1  0
 23 24  2  0
 14 25  1  0
 25 26  1  0
 26 27  1  6
 11 28  1  0
 28 29  2  0
 29 30  1  0
 30 31  1  0
 30 32  2  0
 32 33  1  0
 33 34  2  0
 34 35  1  0
 35 36  2  0
  7  3  1  0
 35  9  1  0
 26 11  1  0
 34 28  1  0
 24 15  1  0
 24 19  1  0
M  END
$$$$

     RDKit          3D

 36 40  0  0  0  0  0  0  0  0999 V2000
    9.9565   -4.1460   27.8456 C   0  0  0  0  0  0  0  0  0  0  0  0
   11.0773   -3.5940   26.9580 C   0  0  0  0  0  0  0  0  0  0  0  0
   10.7092   -2.2008   26.4944 C   0  0  0  0  0  0  0  0  0  0  0  0
   10.6257   -1.2328   27.2010 O   0  0  0  0  0  0  0  0  0  0  0  0
   10.4569   -1.9972   25.0639 N   0  0  2  0  0  0  0  0  0  0  0  0
   11.7255   -1.4537   24.3699 C   0  0  0  0  0  0  0  0  0  0  0  0
   11.3944   -1.2213   22.9204 C   0  0  0  0  0  0  0  0  0  0  0  0
   10.4035   -0.0702   22.8183 C   0  0  0  0  0  0  0  0  0  0  0  0
    9.1979   -0.2475   23.7213 C   0  0  0  0  0  0  0  0  0  0  0  0
    8.0487    0.5509   23.5765 C   0  0  0  0  0  0  0  0  0  0  0  0
    7.9713    1.4426   22.4633 N   0  0  0  0  0  0  0  0  0  0  0  0
    8.2695    2.8628   22.6750 C   0  0  0  0  0  0  0  0  0  0  0  0
    7.0188    3.7249   22.6692 C   0  0  0  0  0  0  0  0  0  0  0  0
    6.6269    4.3238   21.4752 C   0  0  0  0  0  0  0  0  0  0  0  0
    5.4332    5.0275   21.3811 C   0  0  0  0  0  0  0  0  0  0  0  0
    4.6145    5.1567   22.4980 C   0  0  0  0  0  0  0  0  0  0  0  0
    5.0342    4.6042   23.7019 C   0  0  0  0  0  0  0  0  0  0  0  0
    4.0318    4.7932   25.1166 Cl  0  0  0  0  0  0  0  0  0  0  0  0
    6.2249    3.8917   23.8010 C   0  0  0  0  0  0  0  0  0  0  0  0
    7.5509    1.0475   21.2175 C   0  0  0  0  0  0  0  0  0  0  0  0
    7.6994    1.7541   20.2359 O   0  0  0  0  0  0  0  0  0  0  0  0
    6.8634   -0.3253   21.0831 C   0  0  0  0  0  0  0  0  0  0  0  0
    5.8754   -0.2159   19.9758 C   0  0  0  0  0  0  0  0  0  0  0  0
    6.1309   -0.7513   18.7406 C   0  0  0  0  0  0  0  0  0  0  0  0
    5.3522   -0.5752   17.6437 N   0  0  0  0  0  0  0  0  0  0  0  0
    4.2843    0.1719   17.8041 C   0  0  0  0  0  0  0  0  0  0  0  0
    3.9047    0.7909   19.0286 C   0  0  0  0  0  0  0  0  0  0  0  0
    2.7523    1.6053   19.1362 C   0  0  0  0  0  0  0  0  0  0  0  0
    2.4086    2.1823   20.3267 C   0  0  0  0  0  0  0  0  0  0  0  0
    3.2281    2.0044   21.4659 C   0  0  0  0  0  0  0  0  0  0  0  0
    4.3827    1.2656   21.3758 C   0  0  0  0  0  0  0  0  0  0  0  0
    4.7328    0.6135   20.1562 C   0  0  0  0  0  0  0  0  0  0  0  0
    6.9960    0.4928   24.4851 C   0  0  0  0  0  0  0  0  0  0  0  0
    7.0549   -0.3962   25.5559 C   0  0  0  0  0  0  0  0  0  0  0  0
    8.1675   -1.2112   25.7022 C   0  0  0  0  0  0  0  0  0  0  0  0
    9.2333   -1.1141   24.8054 C   0  0  0  0  0  0  0  0  0  0  0  0
  1  2  1  0
  2  3  1  0
  3  4  2  0
  5  3  1  1
  5  6  1  0
  6  7  1  0
  7  8  1  0
  8  9  1  0
  9 10  2  0
 10 11  1  0
 11 12  1  0
 12 13  1  0
 13 14  2  0
 14 15  1  0
 15 16  2  0
 16 17  1  0
 17 18  1  0
 17 19  2  0
 11 20  1  0
 20 21  2  0
 20 22  1  0
 22 23  1  0
 23 24  2  0
 24 25  1  0
 25 26  2  0
 26 27  1  0
 27 28  2  0
 28 29  1  0
 29 30  2  0
 30 31  1  0
 31 32  2  0
 10 33  1  0
 33 34  2  0
 34 35  1  0
 35 36  2  0
 36  5  1  0
 36  9  1  0
 19 13  1  0
 32 23  1  0
 32 27  1  0
M  CHG  1   5   1
M  END
>  <cnnaffinities>  (189) 
[6.49098]

>  <score>  (189) 
6.49098

>  <index>  (189) 
94

>  <Smiles>  (189) 
C(C(C(=O)[N@@+]1(C(C(C(c2c(N(C(c3c(c(c(c(Cl)c3[H])[H])[H])[H])([H])[H])C(=O)C(c3c(nc(c4c(c(c(c(c34)[H])[H])[H])[H])[H])[H])([H])[H])c(c(c(c12)[H])[H])[H])([H])[H])([H])[H])([H])[H])[H])([H])[H])([H])([H])[H]

>  <h>  (189) 
<NA>

>  <Training>  (189) 
True

>  <Success>  (189) 
True

>  <enamine_searched>  (189) 
False

>  <enamine_id>  (189) 
nan

$$$$

     RDKit          3D

 39 43  0  0  0  0  0  0  0  0999 V2000
    5.8270    3.1256   27.3752 C   0  0  0  0  0  0  0  0  0  0  0  0
    5.9935    2.9877   25.9409 N   0  0  0  0  0  0  0  0  0  0  0  0
    6.6795    3.9383   25.2485 C   0  0  0  0  0  0  0  0  0  0  0  0
    7.1478    4.9157   25.8110 O   0  0  0  0  0  0  0  0  0  0  0  0
    6.8184    3.7051   23.7343 C   0  0  0  0  0  0  0  0  0  0  0  0
    7.9438    2.8773   23.3479 N   0  0  0  0  0  0  0  0  0  0  0  0
    7.8771    1.4307   23.5299 C   0  0  0  0  0  0  0  0  0  0  0  0
    8.5900    0.6930   22.3651 C   0  0  2  0  0  0  0  0  0  0  0  0
    7.7351    0.9475   21.0969 C   0  0  0  0  0  0  0  0  0  0  0  0
    7.6880    1.9490   20.4208 O   0  0  0  0  0  0  0  0  0  0  0  0
    6.9555   -0.1658   20.8607 N   0  0  0  0  0  0  0  0  0  0  0  0
    5.9246   -0.1169   19.8885 C   0  0  0  0  0  0  0  0  0  0  0  0
    6.0808   -0.7842   18.7020 C   0  0  0  0  0  0  0  0  0  0  0  0
    5.2476   -0.6704   17.6408 N   0  0  0  0  0  0  0  0  0  0  0  0
    4.1952    0.1004   17.7878 C   0  0  0  0  0  0  0  0  0  0  0  0
    3.8595    0.7751   18.9950 C   0  0  0  0  0  0  0  0  0  0  0  0
    2.6760    1.5506   19.1143 C   0  0  0  0  0  0  0  0  0  0  0  0
    2.3380    2.1301   20.3053 C   0  0  0  0  0  0  0  0  0  0  0  0
    3.1850    1.9833   21.4265 C   0  0  0  0  0  0  0  0  0  0  0  0
    4.3555    1.2710   21.3265 C   0  0  0  0  0  0  0  0  0  0  0  0
    4.7324    0.6519   20.0985 C   0  0  0  0  0  0  0  0  0  0  0  0
    7.1990   -1.2696   21.7650 C   0  0  0  0  0  0  0  0  0  0  0  0
    8.5096   -0.8642   22.4864 C   0  0  2  0  0  0  0  0  0  0  0  0
    8.5655   -1.4824   23.8930 C   0  0  0  0  0  0  0  0  0  0  0  0
   10.1072   -1.3546   24.8178 S   0  0  0  0  0  0  0  0  0  0  0  0
   10.3875    0.0361   25.1186 O   0  0  0  0  0  0  0  0  0  0  0  0
   10.0332   -2.3283   25.8990 O   0  0  0  0  0  0  0  0  0  0  0  0
   11.2607   -1.8282   23.7085 N   0  0  0  0  0  0  0  0  0  0  0  0
   11.1759   -3.1997   23.2615 C   0  0  0  0  0  0  0  0  0  0  0  0
   12.6341   -1.4119   24.0110 C   0  0  0  0  0  0  0  0  0  0  0  0
    9.9948    1.2813   22.2660 C   0  0  0  0  0  0  0  0  0  0  0  0
   11.0975    0.5264   21.8409 C   0  0  0  0  0  0  0  0  0  0  0  0
   12.3455    1.1150   21.8137 C   0  0  0  0  0  0  0  0  0  0  0  0
   13.4056    0.3344   21.5247 F   0  0  0  0  0  0  0  0  0  0  0  0
   12.5734    2.4542   22.0923 C   0  0  0  0  0  0  0  0  0  0  0  0
   11.4844    3.2287   22.4279 C   0  0  0  0  0  0  0  0  0  0  0  0
   10.2285    2.6389   22.5636 C   0  0  0  0  0  0  0  0  0  0  0  0
    9.1213    3.5200   23.0493 C   0  0  0  0  0  0  0  0  0  0  0  0
    9.2633    4.7286   23.1714 O   0  0  0  0  0  0  0  0  0  0  0  0
  1  2  1  0
  2  3  1  0
  3  4  2  0
  3  5  1  0
  5  6  1  0
  6  7  1  0
  8  7  1  1
  8  9  1  0
  9 10  2  0
  9 11  1  0
 11 12  1  0
 12 13  2  0
 13 14  1  0
 14 15  2  0
 15 16  1  0
 16 17  2  0
 17 18  1  0
 18 19  2  0
 19 20  1  0
 20 21  2  0
 11 22  1  0
 22 23  1  0
 23 24  1  1
 24 25  1  0
 25 26  2  0
 25 27  2  0
 25 28  1  0
 28 29  1  0
 28 30  1  0
  8 31  1  0
 31 32  2  0
 32 33  1  0
 33 34  1  0
 33 35  2  0
 35 36  1  0
 36 37  2  0
 37 38  1  0
 38 39  2  0
 38  6  1  0
 23  8  1  0
 37 31  1  0
 21 12  1  0
 21 16  1  0
M  END
$$$$

     RDKit          3D

 29 30  0  0  0  0  0  0  0  0999 V2000
   -8.7601   -4.4266  -17.2097 C   0  0  0  0  0  0  0  0  0  0  0  0
   -7.4141   -4.1015  -17.7172 N   0  0  0  0  0  0  0  0  0  0  0  0
   -6.9595   -2.6562  -18.3151 S   0  0  0  0  0  0  0  0  0  0  0  0
   -8.1051   -1.7775  -18.4077 O   0  0  0  0  0  0  0  0  0  0  0  0
   -5.7409   -2.1988  -17.6848 O   0  0  0  0  0  0  0  0  0  0  0  0
   -6.5602   -3.0879  -19.8355 O   0  0  0  0  0  0  0  0  0  0  0  0
   -6.0140   -1.9758  -20.5752 C   0  0  0  0  0  0  0  0  0  0  0  0
   -6.8099   -1.7338  -21.8459 C   0  0  0  0  0  0  0  0  0  0  0  0
   -6.2735   -1.2507  -22.8315 O   0  0  0  0  0  0  0  0  0  0  0  0
   -8.1341   -2.0379  -21.7931 N   0  0  0  0  0  0  0  0  0  0  0  0
   -8.8788   -1.9706  -23.0473 C   0  0  1  0  0  0  0  0  0  0  0  0
   -8.7437   -3.2351  -23.8950 C   0  0  0  0  0  0  0  0  0  0  0  0
  -10.3108   -1.5099  -22.8686 C   0  0  0  0  0  0  0  0  0  0  0  0
  -11.4101   -2.3653  -22.8260 C   0  0  0  0  0  0  0  0  0  0  0  0
  -12.6917   -1.8218  -22.7501 C   0  0  0  0  0  0  0  0  0  0  0  0
  -14.0553   -2.8981  -22.6505 Cl  0  0  0  0  0  0  0  0  0  0  0  0
  -12.9167   -0.4529  -22.8096 C   0  0  0  0  0  0  0  0  0  0  0  0
  -11.8219    0.4080  -22.9408 C   0  0  0  0  0  0  0  0  0  0  0  0
  -11.9768    1.8478  -23.3042 C   0  0  0  0  0  0  0  0  0  0  0  0
  -12.9108    2.7179  -22.7242 C   0  0  0  0  0  0  0  0  0  0  0  0
  -13.0896    4.0061  -23.2339 C   0  0  0  0  0  0  0  0  0  0  0  0
  -12.3519    4.4076  -24.3506 C   0  0  0  0  0  0  0  0  0  0  0  0
  -12.7334    5.9134  -25.2105 S   0  0  0  0  0  0  0  0  0  0  0  0
  -11.2128    6.3655  -25.7446 N   0  0  0  0  0  0  0  0  0  0  0  0
  -13.2600    6.8571  -24.2408 O   0  0  0  0  0  0  0  0  0  0  0  0
  -13.4770    5.6509  -26.4320 O   0  0  0  0  0  0  0  0  0  0  0  0
  -11.3596    3.5885  -24.8843 C   0  0  0  0  0  0  0  0  0  0  0  0
  -11.1827    2.3265  -24.3559 C   0  0  0  0  0  0  0  0  0  0  0  0
  -10.5374   -0.1362  -22.9063 C   0  0  0  0  0  0  0  0  0  0  0  0
  1  2  1  0
  2  3  1  0
  3  4  2  0
  3  5  2  0
  3  6  1  0
  6  7  1  0
  7  8  1  0
  8  9  2  0
  8 10  1  0
 10 11  1  0
 11 12  1  1
 11 13  1  0
 13 14  2  0
 14 15  1  0
 15 16  1  0
 15 17  2  0
 17 18  1  0
 18 19  1  0
 19 20  2  0
 20 21  1  0
 21 22  2  0
 22 23  1  0
 23 24  1  0
 23 25  2  0
 23 26  2  0
 22 27  1  0
 27 28  2  0
 18 29  2  0
 29 13  1  0
 28 19  1  0
M  END
$$$$

     RDKit          3D

 40 45  0  0  0  0  0  0  0  0999 V2000
   -7.0091    3.6327  -22.4894 C   0  0  0  0  0  0  0  0  0  0  0  0
   -7.7957    2.6945  -23.2687 N   0  0  0  0  0  0  0  0  0  0  0  0
   -7.5046    2.5242  -24.5778 C   0  0  0  0  0  0  0  0  0  0  0  0
   -6.7357    3.2404  -25.2042 O   0  0  0  0  0  0  0  0  0  0  0  0
   -8.1583    1.3526  -25.3202 C   0  0  0  0  0  0  0  0  0  0  0  0
   -8.9884    0.4586  -24.5548 N   0  0  0  0  0  0  0  0  0  0  0  0
   -8.5103   -0.8890  -24.2805 C   0  0  0  0  0  0  0  0  0  0  0  0
   -9.0687   -1.4265  -22.9394 C   0  0  2  0  0  0  0  0  0  0  0  0
   -8.4704   -0.5760  -21.7907 C   0  0  0  0  0  0  0  0  0  0  0  0
   -8.7798    0.5665  -21.5101 O   0  0  0  0  0  0  0  0  0  0  0  0
   -7.4967   -1.3113  -21.1517 N   0  0  0  0  0  0  0  0  0  0  0  0
   -6.6565   -0.7940  -20.1252 C   0  0  0  0  0  0  0  0  0  0  0  0
   -6.8878   -1.1452  -18.8188 C   0  0  0  0  0  0  0  0  0  0  0  0
   -6.1266   -0.7520  -17.7670 N   0  0  0  0  0  0  0  0  0  0  0  0
   -5.1033    0.0303  -18.0104 C   0  0  0  0  0  0  0  0  0  0  0  0
   -4.7549    0.4854  -19.3154 C   0  0  0  0  0  0  0  0  0  0  0  0
   -3.6646    1.3676  -19.5324 C   0  0  0  0  0  0  0  0  0  0  0  0
   -3.3242    1.7617  -20.7960 C   0  0  0  0  0  0  0  0  0  0  0  0
   -4.0595    1.2874  -21.9031 C   0  0  0  0  0  0  0  0  0  0  0  0
   -5.1409    0.4607  -21.7213 C   0  0  0  0  0  0  0  0  0  0  0  0
   -5.5306    0.0460  -20.4159 C   0  0  0  0  0  0  0  0  0  0  0  0
   -7.2203   -2.5768  -21.8067 C   0  0  0  0  0  0  0  0  0  0  0  0
   -8.5394   -2.8315  -22.5490 C   0  0  2  0  0  0  0  0  0  0  0  0
   -8.4715   -3.8562  -23.6846 C   0  0  0  0  0  0  0  0  0  0  0  0
   -8.2190   -5.2109  -23.2411 N   0  0  0  0  0  0  0  0  0  0  0  0
   -6.9579   -5.7036  -23.1163 C   0  0  0  0  0  0  0  0  0  0  0  0
   -6.7199   -6.9378  -22.4809 C   0  0  0  0  0  0  0  0  0  0  0  0
   -5.4094   -7.3483  -22.4387 C   0  0  0  0  0  0  0  0  0  0  0  0
   -4.3929   -6.6784  -22.9990 N   0  0  0  0  0  0  0  0  0  0  0  0
   -4.7366   -5.5400  -23.5833 C   0  0  0  0  0  0  0  0  0  0  0  0
   -5.9495   -4.9930  -23.6408 N   0  0  0  0  0  0  0  0  0  0  0  0
  -10.5779   -1.3025  -23.0407 C   0  0  0  0  0  0  0  0  0  0  0  0
  -11.4688   -2.2521  -22.5333 C   0  0  0  0  0  0  0  0  0  0  0  0
  -12.8245   -1.9772  -22.4822 C   0  0  0  0  0  0  0  0  0  0  0  0
  -13.8622   -3.1034  -21.6486 Cl  0  0  0  0  0  0  0  0  0  0  0  0
  -13.3629   -0.8037  -23.0093 C   0  0  0  0  0  0  0  0  0  0  0  0
  -12.4986    0.1062  -23.5847 C   0  0  0  0  0  0  0  0  0  0  0  0
  -11.1293   -0.1480  -23.6155 C   0  0  0  0  0  0  0  0  0  0  0  0
  -10.2563    0.8740  -24.2604 C   0  0  0  0  0  0  0  0  0  0  0  0
  -10.6476    2.0170  -24.4850 O   0  0  0  0  0  0  0  0  0  0  0  0
  1  2  1  0
  2  3  1  0
  3  4  2  0
  3  5  1  0
  5  6  1  0
  6  7  1  0
  8  7  1  6
  8  9  1  0
  9 10  2  0
  9 11  1  0
 11 12  1  0
 12 13  2  0
 13 14  1  0
 14 15  2  0
 15 16  1  0
 16 17  2  0
 17 18  1  0
 18 19  2  0
 19 20  1  0
 20 21  2  0
 11 22  1  0
 22 23  1  0
 23 24  1  6
 24 25  1  0
 25 26  1  0
 26 27  2  0
 27 28  1  0
 28 29  2  0
 29 30  1  0
 30 31  2  0
  8 32  1  0
 32 33  2  0
 33 34  1  0
 34 35  1  0
 34 36  2  0
 36 37  1  0
 37 38  2  0
 38 39  1  0
 39 40  2  0
 39  6  1  0
 23  8  1  0
 31 26  1  0
 38 32  1  0
 21 12  1  0
 21 16  1  0
M  END
$$$$

     RDKit          3D

 22 24  0  0  0  0  0  0  0  0999 V2000
    8.4866    1.2329   20.2933 O   0  0  0  0  0  0  0  0  0  0  0  0
    7.7724    0.8611   21.2082 C   0  0  0  0  0  0  0  0  0  0  0  0
    6.8696   -0.3705   21.0945 C   0  0  0  0  0  0  0  0  0  0  0  0
    5.8623   -0.1965   19.9853 C   0  0  0  0  0  0  0  0  0  0  0  0
    6.0871   -0.7682   18.7612 C   0  0  0  0  0  0  0  0  0  0  0  0
    5.2935   -0.6238   17.6667 N   0  0  0  0  0  0  0  0  0  0  0  0
    4.2174    0.1120   17.8035 C   0  0  0  0  0  0  0  0  0  0  0  0
    3.8421    0.7511   19.0186 C   0  0  0  0  0  0  0  0  0  0  0  0
    2.6684    1.5401   19.1329 C   0  0  0  0  0  0  0  0  0  0  0  0
    2.3318    2.1312   20.3169 C   0  0  0  0  0  0  0  0  0  0  0  0
    3.1809    1.9977   21.4354 C   0  0  0  0  0  0  0  0  0  0  0  0
    4.3393    1.2634   21.3481 C   0  0  0  0  0  0  0  0  0  0  0  0
    4.6930    0.6051   20.1418 C   0  0  0  0  0  0  0  0  0  0  0  0
    7.7021    1.5466   22.3857 N   0  0  0  0  0  0  0  0  0  0  0  0
    8.5134    2.7415   22.5515 C   0  0  0  0  0  0  0  0  0  0  0  0
   10.0060    2.4596   22.6528 C   0  0  0  0  0  0  0  0  0  0  0  0
   10.8797    3.0740   21.7581 C   0  0  0  0  0  0  0  0  0  0  0  0
   12.2407    2.7795   21.8093 C   0  0  0  0  0  0  0  0  0  0  0  0
   12.7378    1.8621   22.7173 C   0  0  0  0  0  0  0  0  0  0  0  0
   11.8701    1.2895   23.6351 C   0  0  0  0  0  0  0  0  0  0  0  0
   12.5101    0.2074   24.8366 Cl  0  0  0  0  0  0  0  0  0  0  0  0
   10.5121    1.5799   23.6137 C   0  0  0  0  0  0  0  0  0  0  0  0
  1  2  2  0
  2  3  1  0
  3  4  1  0
  4  5  2  0
  5  6  1  0
  6  7  2  0
  7  8  1  0
  8  9  2  0
  9 10  1  0
 10 11  2  0
 11 12  1  0
 12 13  2  0
  2 14  1  0
 14 15  1  0
 15 16  1  0
 16 17  2  0
 17 18  1  0
 18 19  2  0
 19 20  1  0
 20 21  1  0
 20 22  2  0
 13  4  1  0
 22 16  1  0
 13  8  1  0
M  END
$$$$

     RDKit          3D

 37 41  0  0  0  0  0  0  0  0999 V2000
   -7.0074    3.6337  -22.4912 C   0  0  0  0  0  0  0  0  0  0  0  0
   -7.8007    2.7002  -23.2700 N   0  0  0  0  0  0  0  0  0  0  0  0
   -7.5101    2.5270  -24.5776 C   0  0  0  0  0  0  0  0  0  0  0  0
   -6.7373    3.2369  -25.2039 O   0  0  0  0  0  0  0  0  0  0  0  0
   -8.1570    1.3542  -25.3221 C   0  0  0  0  0  0  0  0  0  0  0  0
   -8.9936    0.4589  -24.5654 N   0  0  0  0  0  0  0  0  0  0  0  0
   -8.5135   -0.8834  -24.2744 C   0  0  0  0  0  0  0  0  0  0  0  0
   -9.0683   -1.4112  -22.9317 C   0  0  2  0  0  0  0  0  0  0  0  0
   -8.4712   -0.5658  -21.7833 C   0  0  0  0  0  0  0  0  0  0  0  0
   -8.7806    0.5773  -21.5017 O   0  0  0  0  0  0  0  0  0  0  0  0
   -7.5038   -1.3009  -21.1408 N   0  0  0  0  0  0  0  0  0  0  0  0
   -6.6566   -0.7913  -20.1201 C   0  0  0  0  0  0  0  0  0  0  0  0
   -6.8857   -1.1448  -18.8135 C   0  0  0  0  0  0  0  0  0  0  0  0
   -6.1246   -0.7482  -17.7653 N   0  0  0  0  0  0  0  0  0  0  0  0
   -5.1016    0.0343  -18.0069 C   0  0  0  0  0  0  0  0  0  0  0  0
   -4.7577    0.4890  -19.3138 C   0  0  0  0  0  0  0  0  0  0  0  0
   -3.6645    1.3680  -19.5330 C   0  0  0  0  0  0  0  0  0  0  0  0
   -3.3226    1.7616  -20.7962 C   0  0  0  0  0  0  0  0  0  0  0  0
   -4.0599    1.2873  -21.9007 C   0  0  0  0  0  0  0  0  0  0  0  0
   -5.1433    0.4605  -21.7181 C   0  0  0  0  0  0  0  0  0  0  0  0
   -5.5314    0.0456  -20.4121 C   0  0  0  0  0  0  0  0  0  0  0  0
   -7.2297   -2.5632  -21.7973 C   0  0  0  0  0  0  0  0  0  0  0  0
   -8.5336   -2.8199  -22.5623 C   0  0  2  0  0  0  0  0  0  0  0  0
   -8.3827   -3.8127  -23.7142 C   0  0  0  0  0  0  0  0  0  0  0  0
   -9.6160   -4.0244  -24.3701 O   0  0  0  0  0  0  0  0  0  0  0  0
  -10.1956   -5.3129  -24.2058 C   0  0  0  0  0  0  0  0  0  0  0  0
  -11.6785   -5.1530  -24.4670 C   0  0  0  0  0  0  0  0  0  0  0  0
   -9.5469   -6.3037  -25.1594 C   0  0  0  0  0  0  0  0  0  0  0  0
  -10.5756   -1.2893  -23.0358 C   0  0  0  0  0  0  0  0  0  0  0  0
  -11.4637   -2.2406  -22.5249 C   0  0  0  0  0  0  0  0  0  0  0  0
  -12.8194   -1.9674  -22.4679 C   0  0  0  0  0  0  0  0  0  0  0  0
  -13.8678   -3.0865  -21.6301 Cl  0  0  0  0  0  0  0  0  0  0  0  0
  -13.3615   -0.8015  -23.0046 C   0  0  0  0  0  0  0  0  0  0  0  0
  -12.5006    0.1082  -23.5872 C   0  0  0  0  0  0  0  0  0  0  0  0
  -11.1307   -0.1429  -23.6193 C   0  0  0  0  0  0  0  0  0  0  0  0
  -10.2601    0.8813  -24.2668 C   0  0  0  0  0  0  0  0  0  0  0  0
  -10.6488    2.0196  -24.4870 O   0  0  0  0  0  0  0  0  0  0  0  0
  1  2  1  0
  2  3  1  0
  3  4  2  0
  3  5  1  0
  5  6  1  0
  6  7  1  0
  8  7  1  6
  8  9  1  0
  9 10  2  0
  9 11  1  0
 11 12  1  0
 12 13  2  0
 13 14  1  0
 14 15  2  0
 15 16  1  0
 16 17  2  0
 17 18  1  0
 18 19  2  0
 19 20  1  0
 20 21  2  0
 11 22  1  0
 22 23  1  0
 23 24  1  6
 24 25  1  0
 25 26  1  0
 26 27  1  0
 26 28  1  0
  8 29  1  0
 29 30  2  0
 30 31  1  0
 31 32  1  0
 31 33  2  0
 33 34  1  0
 34 35  2  0
 35 36  1  0
 36 37  2  0
 36  6  1  0
 23  8  1  0
 35 29  1  0
 21 12  1  0
 21 16  1  0
M  END
$$$$

     RDKit          3D

 23 26  0  0  0  0  0  0  0  0999 V2000
   -8.3035   -1.8553  -26.5135 C   0  0  0  0  0  0  0  0  0  0  0  0
   -7.4883   -2.9617  -25.8442 C   0  0  2  0  0  0  0  0  0  0  0  0
   -8.3341   -4.2144  -25.6200 C   0  0  0  0  0  0  0  0  0  0  0  0
   -9.2692   -4.0325  -24.5767 O   0  0  0  0  0  0  0  0  0  0  0  0
   -8.6159   -3.8825  -23.3342 C   0  0  0  0  0  0  0  0  0  0  0  0
   -7.7646   -2.5997  -23.2878 C   0  0  1  0  0  0  0  0  0  0  0  0
   -6.8356   -2.5415  -24.5201 C   0  0  0  0  0  0  0  0  0  0  0  0
   -8.5848   -1.4127  -23.1247 N   0  0  0  0  0  0  0  0  0  0  0  0
   -8.3721   -0.6976  -21.9744 C   0  0  0  0  0  0  0  0  0  0  0  0
   -8.8970    0.3269  -21.6093 O   0  0  0  0  0  0  0  0  0  0  0  0
   -7.3725   -1.4140  -21.2648 N   0  0  0  0  0  0  0  0  0  0  0  0
   -6.5902   -0.8368  -20.2030 C   0  0  0  0  0  0  0  0  0  0  0  0
   -6.8921   -1.0562  -18.8809 C   0  0  0  0  0  0  0  0  0  0  0  0
   -6.2016   -0.5441  -17.8204 N   0  0  0  0  0  0  0  0  0  0  0  0
   -5.1611    0.2182  -18.0682 C   0  0  0  0  0  0  0  0  0  0  0  0
   -4.7247    0.5320  -19.3883 C   0  0  0  0  0  0  0  0  0  0  0  0
   -3.5949    1.3642  -19.6278 C   0  0  0  0  0  0  0  0  0  0  0  0
   -3.2073    1.6450  -20.9124 C   0  0  0  0  0  0  0  0  0  0  0  0
   -3.9260    1.1113  -22.0032 C   0  0  0  0  0  0  0  0  0  0  0  0
   -5.0190    0.3082  -21.7937 C   0  0  0  0  0  0  0  0  0  0  0  0
   -5.4514   -0.0053  -20.4782 C   0  0  0  0  0  0  0  0  0  0  0  0
   -6.9516   -2.5411  -21.9962 C   0  0  0  0  0  0  0  0  0  0  0  0
   -6.0903   -3.3117  -21.6546 O   0  0  0  0  0  0  0  0  0  0  0  0
  2  1  1  1
  2  3  1  0
  3  4  1  0
  4  5  1  0
  6  5  1  1
  6  7  1  0
  6  8  1  0
  8  9  1  0
  9 10  2  0
  9 11  1  0
 11 12  1  0
 12 13  2  0
 13 14  1  0
 14 15  2  0
 15 16  1  0
 16 17  2  0
 17 18  1  0
 18 19  2  0
 19 20  1  0
 20 21  2  0
 11 22  1  0
 22 23  2  0
  7  2  1  0
 21 12  1  0
 22  6  1  0
 21 16  1  0
M  END
$$$$
