
     RDKit          3D

 64 68  0  0  0  0  0  0  0  0999 V2000
    8.9004   -1.5126   21.0489 C   0  0  0  0  0  0  0  0  0  0  0  0
    8.1153   -0.2030   21.0022 C   0  0  0  0  0  0  0  0  0  0  0  0
    6.6229   -0.3043   21.2793 C   0  0  0  0  0  0  0  0  0  0  0  0
    6.1902   -0.4444   22.4089 O   0  0  0  0  0  0  0  0  0  0  0  0
    5.8113   -0.1794   20.1576 N   0  0  0  0  0  0  0  0  0  0  0  0
    6.2934   -0.7378   18.8981 C   0  0  0  0  0  0  0  0  0  0  0  0
    5.1215   -1.1069   18.0165 C   0  0  0  0  0  0  0  0  0  0  0  0
    4.3122    0.1548   17.7444 C   0  0  0  0  0  0  0  0  0  0  0  0
    3.8600    0.7789   19.0462 C   0  0  0  0  0  0  0  0  0  0  0  0
    2.6989    1.5442   19.1419 C   0  0  0  0  0  0  0  0  0  0  0  0
    2.3242    2.1796   20.3190 C   0  0  0  0  0  0  0  0  0  0  0  0
    3.1611    2.0821   21.4320 C   0  0  0  0  0  0  0  0  0  0  0  0
    2.8286    2.7295   22.6535 N   0  0  0  0  0  0  0  0  0  0  0  0
    2.9070    2.0259   23.9376 C   0  0  0  0  0  0  0  0  0  0  0  0
    3.9870    2.6039   24.8464 C   0  0  0  0  0  0  0  0  0  0  0  0
    3.7162    3.7506   25.5931 C   0  0  0  0  0  0  0  0  0  0  0  0
    4.7009    4.3266   26.3803 C   0  0  0  0  0  0  0  0  0  0  0  0
    5.9774    3.7820   26.4301 C   0  0  0  0  0  0  0  0  0  0  0  0
    6.2399    2.6402   25.6851 C   0  0  0  0  0  0  0  0  0  0  0  0
    7.8544    1.9753   25.6873 Cl  0  0  0  0  0  0  0  0  0  0  0  0
    5.2612    2.0397   24.9023 C   0  0  0  0  0  0  0  0  0  0  0  0
    2.3765    4.0427   22.7234 C   0  0  0  0  0  0  0  0  0  0  0  0
    1.5629    4.3882   23.5585 O   0  0  0  0  0  0  0  0  0  0  0  0
    3.0448    5.0825   21.8247 C   0  0  0  0  0  0  0  0  0  0  0  0
    4.0775    5.7870   22.6702 C   0  0  0  0  0  0  0  0  0  0  0  0
    3.6800    6.8144   23.4883 C   0  0  0  0  0  0  0  0  0  0  0  0
    4.4658    7.4519   24.3835 N   0  0  0  0  0  0  0  0  0  0  0  0
    5.7056    7.0270   24.4982 C   0  0  0  0  0  0  0  0  0  0  0  0
    6.2392    5.9556   23.7319 C   0  0  0  0  0  0  0  0  0  0  0  0
    7.5625    5.5021   23.9076 C   0  0  0  0  0  0  0  0  0  0  0  0
    8.3031    6.1312   24.8376 F   0  0  0  0  0  0  0  0  0  0  0  0
    8.0928    4.4700   23.1954 C   0  0  0  0  0  0  0  0  0  0  0  0
    7.2798    3.8579   22.2287 C   0  0  0  0  0  0  0  0  0  0  0  0
    5.9878    4.2578   22.0158 C   0  0  0  0  0  0  0  0  0  0  0  0
    5.4235    5.3164   22.7806 C   0  0  0  0  0  0  0  0  0  0  0  0
    4.3119    1.3103   21.3704 C   0  0  0  0  0  0  0  0  0  0  0  0
    4.6530    0.6287   20.1966 C   0  0  0  0  0  0  0  0  0  0  0  0
    8.7265   -2.0658   21.9773 H   0  0  0  0  0  0  0  0  0  0  0  0
    9.9639   -1.2657   20.9855 H   0  0  0  0  0  0  0  0  0  0  0  0
    8.6741   -2.1647   20.2046 H   0  0  0  0  0  0  0  0  0  0  0  0
    8.2596    0.2874   20.0350 H   0  0  0  0  0  0  0  0  0  0  0  0
    8.5128    0.4631   21.7722 H   0  0  0  0  0  0  0  0  0  0  0  0
    6.9374   -0.0112   18.3826 H   0  0  0  0  0  0  0  0  0  0  0  0
    6.9038   -1.6172   19.1171 H   0  0  0  0  0  0  0  0  0  0  0  0
    4.5045   -1.8522   18.5332 H   0  0  0  0  0  0  0  0  0  0  0  0
    5.4886   -1.5471   17.0867 H   0  0  0  0  0  0  0  0  0  0  0  0
    3.4651   -0.0549   17.0838 H   0  0  0  0  0  0  0  0  0  0  0  0
    4.9433    0.8736   17.2001 H   0  0  0  0  0  0  0  0  0  0  0  0
    2.0722    1.6774   18.2657 H   0  0  0  0  0  0  0  0  0  0  0  0
    1.3943    2.7410   20.3824 H   0  0  0  0  0  0  0  0  0  0  0  0
    3.0961    0.9684   23.7364 H   0  0  0  0  0  0  0  0  0  0  0  0
    1.9266    2.1258   24.4189 H   0  0  0  0  0  0  0  0  0  0  0  0
    2.7386    4.2162   25.5146 H   0  0  0  0  0  0  0  0  0  0  0  0
    4.4848    5.2423   26.9252 H   0  0  0  0  0  0  0  0  0  0  0  0
    6.7684    4.2546   27.0083 H   0  0  0  0  0  0  0  0  0  0  0  0
    5.5105    1.1487   24.3257 H   0  0  0  0  0  0  0  0  0  0  0  0
    2.2751    5.8000   21.5181 H   0  0  0  0  0  0  0  0  0  0  0  0
    3.4716    4.6340   20.9265 H   0  0  0  0  0  0  0  0  0  0  0  0
    2.6459    7.1617   23.4428 H   0  0  0  0  0  0  0  0  0  0  0  0
    6.3548    7.5209   25.2154 H   0  0  0  0  0  0  0  0  0  0  0  0
    9.1093    4.1542   23.3845 H   0  0  0  0  0  0  0  0  0  0  0  0
    7.7109    3.0632   21.6287 H   0  0  0  0  0  0  0  0  0  0  0  0
    5.4104    3.7550   21.2503 H   0  0  0  0  0  0  0  0  0  0  0  0
    4.9608    1.2610   22.2320 H   0  0  0  0  0  0  0  0  0  0  0  0
  1  2  1  0
  2  3  1  0
  3  4  2  0
  3  5  1  0
  5  6  1  0
  6  7  1  0
  7  8  1  0
  8  9  1  0
  9 10  2  0
 10 11  1  0
 11 12  2  0
 12 13  1  0
 13 14  1  0
 14 15  1  0
 15 16  2  0
 16 17  1  0
 17 18  2  0
 18 19  1  0
 19 20  1  0
 19 21  2  0
 13 22  1  0
 22 23  2  0
 22 24  1  0
 24 25  1  0
 25 26  2  0
 26 27  1  0
 27 28  2  0
 28 29  1  0
 29 30  2  0
 30 31  1  0
 30 32  1  0
 32 33  2  0
 33 34  1  0
 34 35  2  0
 12 36  1  0
 36 37  2  0
 37  5  1  0
 37  9  1  0
 21 15  1  0
 35 25  1  0
 35 29  1  0
  1 38  1  0
  1 39  1  0
  1 40  1  0
  2 41  1  0
  2 42  1  0
  6 43  1  0
  6 44  1  0
  7 45  1  0
  7 46  1  0
  8 47  1  0
  8 48  1  0
 10 49  1  0
 11 50  1  0
 14 51  1  0
 14 52  1  0
 16 53  1  0
 17 54  1  0
 18 55  1  0
 21 56  1  0
 24 57  1  0
 24 58  1  0
 26 59  1  0
 28 60  1  0
 32 61  1  0
 33 62  1  0
 34 63  1  0
 36 64  1  0
M  END
$$$$
