
     RDKit          3D

 62 67  0  0  0  0  0  0  0  0999 V2000
    8.0177    5.6399   27.0526 C   0  0  0  0  0  0  0  0  0  0  0  0
    9.2799    4.7903   27.0176 C   0  0  0  0  0  0  0  0  0  0  0  0
    9.0091    3.4163   27.4237 N   0  0  0  0  0  0  0  0  0  0  0  0
    9.1406    3.1092   28.7226 N   0  0  0  0  0  0  0  0  0  0  0  0
    8.9101    1.8079   28.7961 C   0  0  0  0  0  0  0  0  0  0  0  0
    8.6115    1.2636   27.5274 C   0  0  0  0  0  0  0  0  0  0  0  0
    8.6739    2.3409   26.6583 C   0  0  0  0  0  0  0  0  0  0  0  0
    8.4591    2.4483   25.1659 C   0  0  0  0  0  0  0  0  0  0  0  0
    9.3188    1.5706   24.4029 N   0  0  0  0  0  0  0  0  0  0  0  0
    8.9371    0.1869   24.2088 C   0  0  0  0  0  0  0  0  0  0  0  0
    9.4784   -0.3476   22.8553 C   0  0  2  0  0  0  0  0  0  0  0  0
    8.8303    0.4701   21.6937 C   0  0  0  0  0  0  0  0  0  0  0  0
    9.0752    1.6064   21.3663 O   0  0  0  0  0  0  0  0  0  0  0  0
    7.8718   -0.3244   21.0889 N   0  0  0  0  0  0  0  0  0  0  0  0
    6.9880    0.1541   20.0819 C   0  0  0  0  0  0  0  0  0  0  0  0
    7.1853   -0.2241   18.7774 C   0  0  0  0  0  0  0  0  0  0  0  0
    6.3660    0.0990   17.7470 N   0  0  0  0  0  0  0  0  0  0  0  0
    5.3196    0.8395   18.0195 C   0  0  0  0  0  0  0  0  0  0  0  0
    5.0128    1.3334   19.3174 C   0  0  0  0  0  0  0  0  0  0  0  0
    3.9168    2.2099   19.5309 C   0  0  0  0  0  0  0  0  0  0  0  0
    3.6254    2.6496   20.7928 C   0  0  0  0  0  0  0  0  0  0  0  0
    4.3986    2.2211   21.8961 C   0  0  0  0  0  0  0  0  0  0  0  0
    5.4824    1.4021   21.7080 C   0  0  0  0  0  0  0  0  0  0  0  0
    5.8390    0.9544   20.4013 C   0  0  0  0  0  0  0  0  0  0  0  0
    7.6403   -1.5668   21.8016 C   0  0  0  0  0  0  0  0  0  0  0  0
    8.9780   -1.7769   22.5202 C   0  0  2  0  0  0  0  0  0  0  0  0
    8.9324   -2.7539   23.6856 C   0  0  0  0  0  0  0  0  0  0  0  0
   10.9868   -0.1741   22.9388 C   0  0  0  0  0  0  0  0  0  0  0  0
   11.9120   -1.1339   22.5096 C   0  0  0  0  0  0  0  0  0  0  0  0
   13.2507   -0.8028   22.4788 C   0  0  0  0  0  0  0  0  0  0  0  0
   14.1271   -1.7007   21.9950 F   0  0  0  0  0  0  0  0  0  0  0  0
   13.7464    0.4193   22.9154 C   0  0  0  0  0  0  0  0  0  0  0  0
   12.8445    1.3353   23.4148 C   0  0  0  0  0  0  0  0  0  0  0  0
   11.4841    1.0353   23.4527 C   0  0  0  0  0  0  0  0  0  0  0  0
   10.5555    2.0377   24.0651 C   0  0  0  0  0  0  0  0  0  0  0  0
   10.9016    3.1976   24.2587 O   0  0  0  0  0  0  0  0  0  0  0  0
    7.2524    5.2343   26.3791 H   0  0  0  0  0  0  0  0  0  0  0  0
    8.2432    6.6684   26.7569 H   0  0  0  0  0  0  0  0  0  0  0  0
    7.6250    5.6432   28.0736 H   0  0  0  0  0  0  0  0  0  0  0  0
    9.7624    4.7811   26.0343 H   0  0  0  0  0  0  0  0  0  0  0  0
   10.0109    5.1592   27.7430 H   0  0  0  0  0  0  0  0  0  0  0  0
    8.9721    1.3273   29.7707 H   0  0  0  0  0  0  0  0  0  0  0  0
    8.4106    0.2258   27.2876 H   0  0  0  0  0  0  0  0  0  0  0  0
    7.4200    2.2111   24.9061 H   0  0  0  0  0  0  0  0  0  0  0  0
    8.6523    3.4695   24.8189 H   0  0  0  0  0  0  0  0  0  0  0  0
    7.8457    0.1309   24.2269 H   0  0  0  0  0  0  0  0  0  0  0  0
    9.3272   -0.4379   25.0254 H   0  0  0  0  0  0  0  0  0  0  0  0
    8.0491   -0.8371   18.5233 H   0  0  0  0  0  0  0  0  0  0  0  0
    4.6541    1.0982   17.1968 H   0  0  0  0  0  0  0  0  0  0  0  0
    3.3326    2.5310   18.6702 H   0  0  0  0  0  0  0  0  0  0  0  0
    2.7938    3.3269   20.9556 H   0  0  0  0  0  0  0  0  0  0  0  0
    4.1364    2.5582   22.8973 H   0  0  0  0  0  0  0  0  0  0  0  0
    6.0860    1.1087   22.5645 H   0  0  0  0  0  0  0  0  0  0  0  0
    7.4175   -2.3676   21.0928 H   0  0  0  0  0  0  0  0  0  0  0  0
    6.8009   -1.4914   22.5174 H   0  0  0  0  0  0  0  0  0  0  0  0
    9.6479   -2.1658   21.7436 H   0  0  0  0  0  0  0  0  0  0  0  0
    8.6552   -3.7567   23.3455 H   0  0  0  0  0  0  0  0  0  0  0  0
    9.9121   -2.8079   24.1735 H   0  0  0  0  0  0  0  0  0  0  0  0
    8.2002   -2.4283   24.4340 H   0  0  0  0  0  0  0  0  0  0  0  0
   11.6233   -2.1340   22.1975 H   0  0  0  0  0  0  0  0  0  0  0  0
   14.8112    0.6201   22.8689 H   0  0  0  0  0  0  0  0  0  0  0  0
   13.1706    2.2971   23.7917 H   0  0  0  0  0  0  0  0  0  0  0  0
  1  2  1  0
  2  3  1  0
  3  4  1  0
  4  5  2  0
  5  6  1  0
  6  7  2  0
  7  8  1  0
  8  9  1  0
  9 10  1  0
 11 10  1  1
 11 12  1  0
 12 13  2  0
 12 14  1  0
 14 15  1  0
 15 16  2  0
 16 17  1  0
 17 18  2  0
 18 19  1  0
 19 20  2  0
 20 21  1  0
 21 22  2  0
 22 23  1  0
 23 24  2  0
 14 25  1  0
 25 26  1  0
 26 27  1  0
 11 28  1  0
 28 29  2  0
 29 30  1  0
 30 31  1  0
 30 32  2  0
 32 33  1  0
 33 34  2  0
 34 35  1  0
 35 36  2  0
  7  3  1  0
 35  9  1  0
 26 11  1  0
 34 28  1  0
 24 15  1  0
 24 19  1  0
  1 37  1  0
  1 38  1  0
  1 39  1  0
  2 40  1  0
  2 41  1  0
  5 42  1  0
  6 43  1  0
  8 44  1  0
  8 45  1  0
 10 46  1  0
 10 47  1  0
 16 48  1  0
 18 49  1  0
 20 50  1  0
 21 51  1  0
 22 52  1  0
 23 53  1  0
 25 54  1  0
 25 55  1  0
 26 56  1  6
 27 57  1  0
 27 58  1  0
 27 59  1  0
 29 60  1  0
 32 61  1  0
 33 62  1  0
M  END
$$$$
