
     RDKit          3D

 37 39  0  0  0  0  0  0  0  0999 V2000
    8.4866    1.2329   20.2933 O   0  0  0  0  0  0  0  0  0  0  0  0
    7.7724    0.8611   21.2082 C   0  0  0  0  0  0  0  0  0  0  0  0
    6.8696   -0.3705   21.0945 C   0  0  0  0  0  0  0  0  0  0  0  0
    5.8623   -0.1965   19.9853 C   0  0  0  0  0  0  0  0  0  0  0  0
    6.0871   -0.7682   18.7612 C   0  0  0  0  0  0  0  0  0  0  0  0
    5.2935   -0.6238   17.6667 N   0  0  0  0  0  0  0  0  0  0  0  0
    4.2174    0.1120   17.8035 C   0  0  0  0  0  0  0  0  0  0  0  0
    3.8421    0.7511   19.0186 C   0  0  0  0  0  0  0  0  0  0  0  0
    2.6684    1.5401   19.1329 C   0  0  0  0  0  0  0  0  0  0  0  0
    2.3318    2.1312   20.3169 C   0  0  0  0  0  0  0  0  0  0  0  0
    3.1809    1.9977   21.4354 C   0  0  0  0  0  0  0  0  0  0  0  0
    4.3393    1.2634   21.3481 C   0  0  0  0  0  0  0  0  0  0  0  0
    4.6930    0.6051   20.1418 C   0  0  0  0  0  0  0  0  0  0  0  0
    7.7021    1.5466   22.3857 N   0  0  0  0  0  0  0  0  0  0  0  0
    8.5134    2.7415   22.5515 C   0  0  0  0  0  0  0  0  0  0  0  0
   10.0060    2.4596   22.6528 C   0  0  0  0  0  0  0  0  0  0  0  0
   10.8797    3.0740   21.7581 C   0  0  0  0  0  0  0  0  0  0  0  0
   12.2407    2.7795   21.8093 C   0  0  0  0  0  0  0  0  0  0  0  0
   12.7378    1.8621   22.7173 C   0  0  0  0  0  0  0  0  0  0  0  0
   11.8701    1.2895   23.6351 C   0  0  0  0  0  0  0  0  0  0  0  0
   12.5101    0.2074   24.8366 Cl  0  0  0  0  0  0  0  0  0  0  0  0
   10.5121    1.5799   23.6137 C   0  0  0  0  0  0  0  0  0  0  0  0
    6.3786   -0.5847   22.0554 H   0  0  0  0  0  0  0  0  0  0  0  0
    7.5234   -1.2183   20.8504 H   0  0  0  0  0  0  0  0  0  0  0  0
    6.9645   -1.3979   18.6182 H   0  0  0  0  0  0  0  0  0  0  0  0
    3.5711    0.2268   16.9280 H   0  0  0  0  0  0  0  0  0  0  0  0
    2.0535    1.6967   18.2531 H   0  0  0  0  0  0  0  0  0  0  0  0
    1.4172    2.7135   20.4054 H   0  0  0  0  0  0  0  0  0  0  0  0
    2.9159    2.4878   22.3656 H   0  0  0  0  0  0  0  0  0  0  0  0
    5.0017    1.2182   22.2070 H   0  0  0  0  0  0  0  0  0  0  0  0
    7.2159    1.1556   23.1761 H   0  0  0  0  0  0  0  0  0  0  0  0
    8.1578    3.2664   23.4404 H   0  0  0  0  0  0  0  0  0  0  0  0
    8.3330    3.4019   21.6953 H   0  0  0  0  0  0  0  0  0  0  0  0
   10.4713    3.7410   20.9988 H   0  0  0  0  0  0  0  0  0  0  0  0
   12.9558    3.2588   21.1518 H   0  0  0  0  0  0  0  0  0  0  0  0
   13.7946    1.6094   22.7265 H   0  0  0  0  0  0  0  0  0  0  0  0
    9.8710    1.0844   24.3371 H   0  0  0  0  0  0  0  0  0  0  0  0
  1  2  2  0
  2  3  1  0
  3  4  1  0
  4  5  2  0
  5  6  1  0
  6  7  2  0
  7  8  1  0
  8  9  2  0
  9 10  1  0
 10 11  2  0
 11 12  1  0
 12 13  2  0
  2 14  1  0
 14 15  1  0
 15 16  1  0
 16 17  2  0
 17 18  1  0
 18 19  2  0
 19 20  1  0
 20 21  1  0
 20 22  2  0
 13  4  1  0
 22 16  1  0
 13  8  1  0
  3 23  1  0
  3 24  1  0
  5 25  1  0
  7 26  1  0
  9 27  1  0
 10 28  1  0
 11 29  1  0
 12 30  1  0
 14 31  1  0
 15 32  1  0
 15 33  1  0
 17 34  1  0
 18 35  1  0
 19 36  1  0
 22 37  1  0
M  END
$$$$
