
     RDKit          3D

 70 75  0  0  0  0  0  0  0  0999 V2000
    4.1252   -1.7255   27.8523 C   0  0  0  0  0  0  0  0  0  0  0  0
    3.1034   -0.9000   28.3704 O   0  0  0  0  0  0  0  0  0  0  0  0
    2.9727    0.3404   27.8245 C   0  0  0  0  0  0  0  0  0  0  0  0
    1.9620    1.1529   28.3523 C   0  0  0  0  0  0  0  0  0  0  0  0
    1.7825    2.4378   27.8617 C   0  0  0  0  0  0  0  0  0  0  0  0
    2.5916    2.9190   26.8362 C   0  0  0  0  0  0  0  0  0  0  0  0
    3.5747    2.1022   26.2965 C   0  0  0  0  0  0  0  0  0  0  0  0
    4.5068    2.6384   25.2457 C   0  0  0  0  0  0  0  0  0  0  0  0
    5.6465    3.2549   25.9006 N   0  0  0  0  0  0  0  0  0  0  0  0
    6.6389    3.9619   25.2869 C   0  0  0  0  0  0  0  0  0  0  0  0
    7.4215    4.6464   25.9156 O   0  0  0  0  0  0  0  0  0  0  0  0
    6.7162    3.8057   23.7592 C   0  0  0  0  0  0  0  0  0  0  0  0
    7.8243    2.9571   23.3599 N   0  0  0  0  0  0  0  0  0  0  0  0
    7.7700    1.5147   23.5837 C   0  0  0  0  0  0  0  0  0  0  0  0
    8.5080    0.7202   22.4526 C   0  0  2  0  0  0  0  0  0  0  0  0
    7.7171    0.9747   21.1310 C   0  0  0  0  0  0  0  0  0  0  0  0
    7.7000    1.9684   20.4415 O   0  0  0  0  0  0  0  0  0  0  0  0
    6.9771   -0.1521   20.8298 N   0  0  0  0  0  0  0  0  0  0  0  0
    5.9532   -0.1023   19.8547 C   0  0  0  0  0  0  0  0  0  0  0  0
    6.1088   -0.7639   18.6659 C   0  0  0  0  0  0  0  0  0  0  0  0
    5.2695   -0.6446   17.6103 N   0  0  0  0  0  0  0  0  0  0  0  0
    4.2150    0.1237   17.7618 C   0  0  0  0  0  0  0  0  0  0  0  0
    3.8867    0.7941   18.9743 C   0  0  0  0  0  0  0  0  0  0  0  0
    2.7136    1.5840   19.1066 C   0  0  0  0  0  0  0  0  0  0  0  0
    2.3838    2.1486   20.3081 C   0  0  0  0  0  0  0  0  0  0  0  0
    3.2227    1.9665   21.4292 C   0  0  0  0  0  0  0  0  0  0  0  0
    4.3843    1.2448   21.3170 C   0  0  0  0  0  0  0  0  0  0  0  0
    4.7579    0.6527   20.0751 C   0  0  0  0  0  0  0  0  0  0  0  0
    7.1600   -1.2493   21.7450 C   0  0  0  0  0  0  0  0  0  0  0  0
    8.3850   -0.8260   22.5799 C   0  0  2  0  0  0  0  0  0  0  0  0
    8.2820   -1.4085   23.9895 C   0  0  0  0  0  0  0  0  0  0  0  0
    9.9000    1.2786   22.4191 C   0  0  0  0  0  0  0  0  0  0  0  0
   11.2005    0.7839   22.1223 C   0  0  0  0  0  0  0  0  0  0  0  0
   13.6951    0.3954   23.5085 C   0  0  0  0  0  0  0  0  0  0  0  0
   13.7610   -0.5659   21.7109 Cl  0  0  0  0  0  0  0  0  0  0  0  0
   12.0536    1.8729   21.8925 C   0  0  0  0  0  0  0  0  0  0  0  0
   11.3842    3.0413   22.2353 C   0  0  0  0  0  0  0  0  0  0  0  0
   10.0566    2.6817   22.5610 C   0  0  0  0  0  0  0  0  0  0  0  0
    8.9929    3.5805   22.9937 C   0  0  0  0  0  0  0  0  0  0  0  0
    9.1222    4.8020   23.0258 O   0  0  0  0  0  0  0  0  0  0  0  0
    3.7843    0.8200   26.7995 C   0  0  0  0  0  0  0  0  0  0  0  0
    3.9845   -1.9125   26.7791 H   0  0  0  0  0  0  0  0  0  0  0  0
    4.0554   -2.6688   28.3964 H   0  0  0  0  0  0  0  0  0  0  0  0
    5.1194   -1.2854   28.0114 H   0  0  0  0  0  0  0  0  0  0  0  0
    1.3443    0.7593   29.1532 H   0  0  0  0  0  0  0  0  0  0  0  0
    1.0120    3.0793   28.2822 H   0  0  0  0  0  0  0  0  0  0  0  0
    2.4757    3.9323   26.4574 H   0  0  0  0  0  0  0  0  0  0  0  0
    4.8412    1.8110   24.6014 H   0  0  0  0  0  0  0  0  0  0  0  0
    3.9760    3.3795   24.6273 H   0  0  0  0  0  0  0  0  0  0  0  0
    5.6052    3.4014   26.8995 H   0  0  0  0  0  0  0  0  0  0  0  0
    5.7791    3.4287   23.3288 H   0  0  0  0  0  0  0  0  0  0  0  0
    6.9117    4.7944   23.3366 H   0  0  0  0  0  0  0  0  0  0  0  0
    6.7143    1.2163   23.6459 H   0  0  0  0  0  0  0  0  0  0  0  0
    8.2326    1.2808   24.5549 H   0  0  0  0  0  0  0  0  0  0  0  0
    6.9692   -1.4156   18.5198 H   0  0  0  0  0  0  0  0  0  0  0  0
    3.5476    0.2277   16.9052 H   0  0  0  0  0  0  0  0  0  0  0  0
    2.0870    1.7347   18.2340 H   0  0  0  0  0  0  0  0  0  0  0  0
    1.4749    2.7353   20.4064 H   0  0  0  0  0  0  0  0  0  0  0  0
    2.9478    2.4102   22.3831 H   0  0  0  0  0  0  0  0  0  0  0  0
    5.0285    1.1191   22.1826 H   0  0  0  0  0  0  0  0  0  0  0  0
    6.2741   -1.4267   22.3797 H   0  0  0  0  0  0  0  0  0  0  0  0
    7.3653   -2.1816   21.2052 H   0  0  0  0  0  0  0  0  0  0  0  0
    9.2414   -1.2650   22.0553 H   0  0  0  0  0  0  0  0  0  0  0  0
    9.0981   -1.1260   24.6569 H   0  0  0  0  0  0  0  0  0  0  0  0
    7.3545   -1.0833   24.4791 H   0  0  0  0  0  0  0  0  0  0  0  0
    8.2519   -2.5044   23.9341 H   0  0  0  0  0  0  0  0  0  0  0  0
   11.5313   -0.2412   22.1511 H   0  0  0  0  0  0  0  0  0  0  0  0
   13.0901    1.8225   21.5786 H   0  0  0  0  0  0  0  0  0  0  0  0
   11.7619    4.0588   22.2803 H   0  0  0  0  0  0  0  0  0  0  0  0
    4.5894    0.2151   26.3938 H   0  0  0  0  0  0  0  0  0  0  0  0
  1  2  1  0
  2  3  1  0
  3  4  2  0
  4  5  1  0
  5  6  2  0
  6  7  1  0
  7  8  1  0
  8  9  1  0
  9 10  1  0
 10 11  2  0
 10 12  1  0
 12 13  1  0
 13 14  1  0
 15 14  1  1
 15 16  1  0
 16 17  2  0
 16 18  1  0
 18 19  1  0
 19 20  2  0
 20 21  1  0
 21 22  2  0
 22 23  1  0
 23 24  2  0
 24 25  1  0
 25 26  2  0
 26 27  1  0
 27 28  2  0
 18 29  1  0
 29 30  1  0
 30 31  1  0
 15 32  1  0
 32 33  2  0
 33 34  1  0
 34 35  1  0
 34 36  2  0
 36 37  1  0
 37 38  2  0
 38 39  1  0
 39 40  2  0
  7 41  2  0
 41  3  1  0
 39 13  1  0
 30 15  1  0
 38 32  1  0
 28 19  1  0
 28 23  1  0
  1 42  1  0
  1 43  1  0
  1 44  1  0
  4 45  1  0
  5 46  1  0
  6 47  1  0
  8 48  1  0
  8 49  1  0
  9 50  1  0
 12 51  1  0
 12 52  1  0
 14 53  1  0
 14 54  1  0
 20 55  1  0
 22 56  1  0
 24 57  1  0
 25 58  1  0
 26 59  1  0
 27 60  1  0
 29 61  1  0
 29 62  1  0
 30 63  1  6
 31 64  1  0
 31 65  1  0
 31 66  1  0
 33 67  1  0
 36 68  1  0
 37 69  1  0
 41 70  1  0
M  END
$$$$
