
     RDKit          3D

 43 45  0  0  0  0  0  0  0  0999 V2000
  -13.6196   -3.2413  -22.5290 C   0  0  0  0  0  0  0  0  0  0  0  0
  -12.3128   -2.7726  -23.1725 C   0  0  1  0  0  0  0  0  0  0  0  0
  -12.2578   -1.2414  -23.1209 C   0  0  0  0  0  0  0  0  0  0  0  0
  -10.9007   -0.7173  -23.5511 C   0  0  0  0  0  0  0  0  0  0  0  0
   -9.8396   -1.3544  -22.7844 N   0  0  0  0  0  0  0  0  0  0  0  0
   -9.0044   -0.5292  -22.0640 C   0  0  0  0  0  0  0  0  0  0  0  0
   -9.3979    0.5032  -21.5486 O   0  0  0  0  0  0  0  0  0  0  0  0
   -7.5334   -0.8891  -22.0699 C   0  0  0  0  0  0  0  0  0  0  0  0
   -6.7914   -0.6723  -20.7805 C   0  0  0  0  0  0  0  0  0  0  0  0
   -7.2509   -1.1676  -19.5883 C   0  0  0  0  0  0  0  0  0  0  0  0
   -6.6470   -1.0535  -18.3808 N   0  0  0  0  0  0  0  0  0  0  0  0
   -5.4914   -0.4469  -18.3736 C   0  0  0  0  0  0  0  0  0  0  0  0
   -4.8764    0.0977  -19.5235 C   0  0  0  0  0  0  0  0  0  0  0  0
   -3.6401    0.7722  -19.4263 C   0  0  0  0  0  0  0  0  0  0  0  0
   -2.9969    1.2038  -20.5530 C   0  0  0  0  0  0  0  0  0  0  0  0
   -3.5791    0.9848  -21.8226 C   0  0  0  0  0  0  0  0  0  0  0  0
   -4.8013    0.3715  -21.9332 C   0  0  0  0  0  0  0  0  0  0  0  0
   -5.5119   -0.0499  -20.7776 C   0  0  0  0  0  0  0  0  0  0  0  0
   -9.7283   -2.8130  -22.8003 C   0  0  2  0  0  0  0  0  0  0  0  0
   -9.0616   -3.3925  -24.0483 C   0  0  0  0  0  0  0  0  0  0  0  0
  -11.1018   -3.4357  -22.4928 C   0  0  0  0  0  0  0  0  0  0  0  0
  -14.4819   -2.7532  -22.9985 H   0  0  0  0  0  0  0  0  0  0  0  0
  -13.6199   -2.9569  -21.4679 H   0  0  0  0  0  0  0  0  0  0  0  0
  -13.7592   -4.3277  -22.5911 H   0  0  0  0  0  0  0  0  0  0  0  0
  -12.2992   -3.0740  -24.2304 H   0  0  0  0  0  0  0  0  0  0  0  0
  -12.4754   -0.8970  -22.1024 H   0  0  0  0  0  0  0  0  0  0  0  0
  -13.0426   -0.8204  -23.7655 H   0  0  0  0  0  0  0  0  0  0  0  0
  -10.7444   -0.9101  -24.6261 H   0  0  0  0  0  0  0  0  0  0  0  0
  -10.8120    0.3579  -23.3686 H   0  0  0  0  0  0  0  0  0  0  0  0
   -7.1145   -0.2655  -22.8692 H   0  0  0  0  0  0  0  0  0  0  0  0
   -7.4292   -1.9196  -22.4146 H   0  0  0  0  0  0  0  0  0  0  0  0
   -8.1810   -1.7051  -19.5575 H   0  0  0  0  0  0  0  0  0  0  0  0
   -4.9773   -0.3324  -17.4197 H   0  0  0  0  0  0  0  0  0  0  0  0
   -3.2273    0.9014  -18.4293 H   0  0  0  0  0  0  0  0  0  0  0  0
   -2.0325    1.6956  -20.4742 H   0  0  0  0  0  0  0  0  0  0  0  0
   -3.0659    1.3294  -22.7198 H   0  0  0  0  0  0  0  0  0  0  0  0
   -5.2160    0.2152  -22.9254 H   0  0  0  0  0  0  0  0  0  0  0  0
   -9.0674   -3.0736  -21.9639 H   0  0  0  0  0  0  0  0  0  0  0  0
   -8.0890   -2.9249  -24.2348 H   0  0  0  0  0  0  0  0  0  0  0  0
   -9.6660   -3.2937  -24.9561 H   0  0  0  0  0  0  0  0  0  0  0  0
   -8.8754   -4.4587  -23.8746 H   0  0  0  0  0  0  0  0  0  0  0  0
  -11.2184   -3.4015  -21.4059 H   0  0  0  0  0  0  0  0  0  0  0  0
  -11.0716   -4.5028  -22.7491 H   0  0  0  0  0  0  0  0  0  0  0  0
  1  2  1  0
  2  3  1  0
  3  4  1  0
  4  5  1  0
  5  6  1  0
  6  7  2  0
  6  8  1  0
  8  9  1  0
  9 10  2  0
 10 11  1  0
 11 12  2  0
 12 13  1  0
 13 14  2  0
 14 15  1  0
 15 16  2  0
 16 17  1  0
 17 18  2  0
  5 19  1  0
 19 20  1  0
 19 21  1  0
 21  2  1  0
 18  9  1  0
 18 13  1  0
  1 22  1  0
  1 23  1  0
  1 24  1  0
  2 25  1  6
  3 26  1  0
  3 27  1  0
  4 28  1  0
  4 29  1  0
  8 30  1  0
  8 31  1  0
 10 32  1  0
 12 33  1  0
 14 34  1  0
 15 35  1  0
 16 36  1  0
 17 37  1  0
 19 38  1  1
 20 39  1  0
 20 40  1  0
 20 41  1  0
 21 42  1  0
 21 43  1  0
M  END
