
     RDKit          3D

 43 45  0  0  0  0  0  0  0  0999 V2000
   14.0330   -2.0428   22.3835 C   0  0  0  0  0  0  0  0  0  0  0  0
   12.7256   -1.6020   23.0452 C   0  0  1  0  0  0  0  0  0  0  0  0
   12.6246   -0.0741   22.9707 C   0  0  0  0  0  0  0  0  0  0  0  0
   11.2611    0.4172   23.4193 C   0  0  0  0  0  0  0  0  0  0  0  0
   10.2047   -0.2628   22.6836 N   0  0  0  0  0  0  0  0  0  0  0  0
    9.3320    0.5259   21.9669 C   0  0  0  0  0  0  0  0  0  0  0  0
    9.6850    1.5608   21.4278 O   0  0  0  0  0  0  0  0  0  0  0  0
    7.8726    0.1235   22.0073 C   0  0  0  0  0  0  0  0  0  0  0  0
    7.0999    0.2977   20.7295 C   0  0  0  0  0  0  0  0  0  0  0  0
    7.5509   -0.2033   19.5364 C   0  0  0  0  0  0  0  0  0  0  0  0
    6.9208   -0.1264   18.3394 N   0  0  0  0  0  0  0  0  0  0  0  0
    5.7479    0.4461   18.3454 C   0  0  0  0  0  0  0  0  0  0  0  0
    5.1394    0.9911   19.4985 C   0  0  0  0  0  0  0  0  0  0  0  0
    3.8821    1.6277   19.4151 C   0  0  0  0  0  0  0  0  0  0  0  0
    3.2482    2.0586   20.5473 C   0  0  0  0  0  0  0  0  0  0  0  0
    3.8608    1.8772   21.8085 C   0  0  0  0  0  0  0  0  0  0  0  0
    5.1025    1.3017   21.9046 C   0  0  0  0  0  0  0  0  0  0  0  0
    5.8029    0.8824   20.7420 C   0  0  0  0  0  0  0  0  0  0  0  0
   10.1367   -1.7236   22.7245 C   0  0  2  0  0  0  0  0  0  0  0  0
    9.5114   -2.3020   23.9942 C   0  0  0  0  0  0  0  0  0  0  0  0
   11.5218   -2.3110   22.3998 C   0  0  0  0  0  0  0  0  0  0  0  0
   14.8894   -1.5223   22.8283 H   0  0  0  0  0  0  0  0  0  0  0  0
   14.0046   -1.7757   21.3183 H   0  0  0  0  0  0  0  0  0  0  0  0
   14.2057   -3.1235   22.4599 H   0  0  0  0  0  0  0  0  0  0  0  0
   12.7411   -1.8865   24.1077 H   0  0  0  0  0  0  0  0  0  0  0  0
   12.8124    0.2600   21.9429 H   0  0  0  0  0  0  0  0  0  0  0  0
   13.4089    0.3800   23.5931 H   0  0  0  0  0  0  0  0  0  0  0  0
   11.1312    0.2374   24.5000 H   0  0  0  0  0  0  0  0  0  0  0  0
   11.1374    1.4863   23.2217 H   0  0  0  0  0  0  0  0  0  0  0  0
    7.4509    0.7475   22.8049 H   0  0  0  0  0  0  0  0  0  0  0  0
    7.8054   -0.9039   22.3701 H   0  0  0  0  0  0  0  0  0  0  0  0
    8.4956   -0.7139   19.4958 H   0  0  0  0  0  0  0  0  0  0  0  0
    5.2125    0.5301   17.4001 H   0  0  0  0  0  0  0  0  0  0  0  0
    3.4466    1.7287   18.4245 H   0  0  0  0  0  0  0  0  0  0  0  0
    2.2684    2.5208   20.4798 H   0  0  0  0  0  0  0  0  0  0  0  0
    3.3550    2.2212   22.7101 H   0  0  0  0  0  0  0  0  0  0  0  0
    5.5405    1.1736   22.8908 H   0  0  0  0  0  0  0  0  0  0  0  0
    9.4679   -2.0169   21.9054 H   0  0  0  0  0  0  0  0  0  0  0  0
    8.5292   -1.8599   24.1925 H   0  0  0  0  0  0  0  0  0  0  0  0
   10.1299   -2.1709   24.8883 H   0  0  0  0  0  0  0  0  0  0  0  0
    9.3534   -3.3758   23.8409 H   0  0  0  0  0  0  0  0  0  0  0  0
   11.6165   -2.2910   21.3105 H   0  0  0  0  0  0  0  0  0  0  0  0
   11.5279   -3.3742   22.6733 H   0  0  0  0  0  0  0  0  0  0  0  0
  1  2  1  0
  2  3  1  0
  3  4  1  0
  4  5  1  0
  5  6  1  0
  6  7  2  0
  6  8  1  0
  8  9  1  0
  9 10  2  0
 10 11  1  0
 11 12  2  0
 12 13  1  0
 13 14  2  0
 14 15  1  0
 15 16  2  0
 16 17  1  0
 17 18  2  0
  5 19  1  0
 19 20  1  0
 19 21  1  0
 21  2  1  0
 18  9  1  0
 18 13  1  0
  1 22  1  0
  1 23  1  0
  1 24  1  0
  2 25  1  1
  3 26  1  0
  3 27  1  0
  4 28  1  0
  4 29  1  0
  8 30  1  0
  8 31  1  0
 10 32  1  0
 12 33  1  0
 14 34  1  0
 15 35  1  0
 16 36  1  0
 17 37  1  0
 19 38  1  1
 20 39  1  0
 20 40  1  0
 20 41  1  0
 21 42  1  0
 21 43  1  0
M  END
$$$$
