LIG(A-306)
     RDKit          3D

 27 30  0  0  1  0  0  0  0  0999 V2000
    9.4460    1.3521   21.2611 O   0  0  0  0  0  0  0  0  0  0  0  0
    9.1232    0.2761   21.7431 C   0  0  0  0  0  0  0  0  0  0  0  0
    9.9693   -0.3758   22.8640 C   0  0  2  0  0  0  0  0  0  0  0  0
   11.2052    0.4813   23.1620 C   0  0  0  0  0  0  0  0  0  0  0  0
   11.0100    1.7223   23.7681 C   0  0  0  0  0  0  0  0  0  0  0  0
   12.0599    2.6174   23.8491 C   0  0  0  0  0  0  0  0  0  0  0  0
   11.7567    4.2064   24.4871 Cl  0  0  0  0  0  0  0  0  0  0  0  0
   13.3230    2.3066   23.3930 C   0  0  0  0  0  0  0  0  0  0  0  0
   13.5531    1.0627   22.8390 C   0  0  0  0  0  0  0  0  0  0  0  0
   12.5032    0.1625   22.7270 C   0  0  0  0  0  0  0  0  0  0  0  0
   12.8554   -1.3964   22.0109 S   0  0  0  0  0  0  0  0  0  0  0  0
   13.6904   -1.2112   20.8629 O   0  0  0  0  0  0  0  0  0  0  0  0
   13.2886   -2.2994   23.0328 O   0  0  0  0  0  0  0  0  0  0  0  0
   11.3865   -1.8796   21.5039 N   0  0  0  0  0  0  0  0  0  0  0  0
   10.3635   -1.8348   22.5560 C   0  0  0  0  0  0  0  0  0  0  0  0
    9.0344   -0.3510   24.0900 C   0  0  0  0  0  0  0  0  0  0  0  0
    8.0433   -0.4241   21.3171 N   0  0  0  0  0  0  0  0  0  0  0  0
    7.1972   -0.0451   20.2411 C   0  0  0  0  0  0  0  0  0  0  0  0
    6.0281    0.7177   20.4502 C   0  0  0  0  0  0  0  0  0  0  0  0
    5.6321    1.1426   21.8472 C   0  0  0  0  0  0  0  0  0  0  0  0
    4.1730    1.5564   21.9503 C   0  0  0  0  0  0  0  0  0  0  0  0
    3.8108    2.5234   20.8413 C   0  0  0  0  0  0  0  0  0  0  0  0
    3.9879    1.8854   19.4813 C   0  0  0  0  0  0  0  0  0  0  0  0
    5.2740    1.1086   19.3322 C   0  0  0  0  0  0  0  0  0  0  0  0
    5.7320    0.7377   18.0822 C   0  0  0  0  0  0  0  0  0  0  0  0
    6.8361    0.0179   17.8631 N   0  0  0  0  0  0  0  0  0  0  0  0
    7.5442   -0.3690   18.9311 C   0  0  0  0  0  0  0  0  0  0  0  0
  1  2  2  0
  3  2  1  0
  2 17  1  0
  3  4  1  0
  3 15  1  0
  3 16  1  1
  4  5  2  0
  4 10  1  0
  5  6  1  0
  6  7  1  0
  6  8  2  0
  8  9  1  0
  9 10  2  0
 10 11  1  0
 11 12  2  0
 11 13  2  0
 11 14  1  0
 14 15  1  0
 17 18  1  0
 18 19  1  0
 18 27  2  0
 19 20  1  0
 19 24  2  0
 20 21  1  0
 21 22  1  0
 22 23  1  0
 23 24  1  0
 24 25  1  0
 25 26  2  0
 26 27  1  0
M  END
$$$$
