
     RDKit          3D

 66 70  0  0  0  0  0  0  0  0999 V2000
    7.2780    4.6554   22.3852 C   0  0  0  0  0  0  0  0  0  0  0  0
    8.1138    3.7570   23.1607 N   0  0  0  0  0  0  0  0  0  0  0  0
    7.8568    3.5971   24.4770 C   0  0  0  0  0  0  0  0  0  0  0  0
    7.0783    4.2955   25.1090 O   0  0  0  0  0  0  0  0  0  0  0  0
    8.5524    2.4549   25.2252 C   0  0  0  0  0  0  0  0  0  0  0  0
    9.3971    1.5710   24.4642 N   0  0  0  0  0  0  0  0  0  0  0  0
    8.9486    0.2113   24.2049 C   0  0  0  0  0  0  0  0  0  0  0  0
    9.4887   -0.3226   22.8586 C   0  0  2  0  0  0  0  0  0  0  0  0
    8.8432    0.4872   21.7107 C   0  0  0  0  0  0  0  0  0  0  0  0
    9.1142    1.6337   21.4045 O   0  0  0  0  0  0  0  0  0  0  0  0
    7.8831   -0.2848   21.1014 N   0  0  0  0  0  0  0  0  0  0  0  0
    6.9999    0.1845   20.0920 C   0  0  0  0  0  0  0  0  0  0  0  0
    7.2103   -0.1837   18.7863 C   0  0  0  0  0  0  0  0  0  0  0  0
    6.4158    0.1746   17.7492 N   0  0  0  0  0  0  0  0  0  0  0  0
    5.3767    0.9323   18.0012 C   0  0  0  0  0  0  0  0  0  0  0  0
    5.0486    1.3985   19.3081 C   0  0  0  0  0  0  0  0  0  0  0  0
    3.9365    2.2503   19.5378 C   0  0  0  0  0  0  0  0  0  0  0  0
    3.6111    2.6547   20.8019 C   0  0  0  0  0  0  0  0  0  0  0  0
    4.3853    2.2190   21.8971 C   0  0  0  0  0  0  0  0  0  0  0  0
    5.4872    1.4197   21.7034 C   0  0  0  0  0  0  0  0  0  0  0  0
    5.8583    0.9946   20.3958 C   0  0  0  0  0  0  0  0  0  0  0  0
    7.6588   -1.5434   21.7835 C   0  0  0  0  0  0  0  0  0  0  0  0
    8.9858   -1.7514   22.5233 C   0  0  2  0  0  0  0  0  0  0  0  0
    8.8879   -2.7292   23.6936 C   0  0  0  0  0  0  0  0  0  0  0  0
   10.1406   -2.8959   24.3252 O   0  0  0  0  0  0  0  0  0  0  0  0
   10.7524   -4.1703   24.1682 C   0  0  0  0  0  0  0  0  0  0  0  0
   12.2356   -3.9653   24.3939 C   0  0  0  0  0  0  0  0  0  0  0  0
   10.1527   -5.1632   25.1514 C   0  0  0  0  0  0  0  0  0  0  0  0
   10.9939   -0.1574   22.9273 C   0  0  0  0  0  0  0  0  0  0  0  0
   11.8970   -1.0919   22.4117 C   0  0  0  0  0  0  0  0  0  0  0  0
   13.2429   -0.7822   22.3204 C   0  0  0  0  0  0  0  0  0  0  0  0
   14.3038   -1.8853   21.4771 Cl  0  0  0  0  0  0  0  0  0  0  0  0
   13.7637    0.4068   22.8266 C   0  0  0  0  0  0  0  0  0  0  0  0
   12.8905    1.3017   23.4140 C   0  0  0  0  0  0  0  0  0  0  0  0
   11.5291    1.0133   23.4804 C   0  0  0  0  0  0  0  0  0  0  0  0
   10.6445    2.0234   24.1310 C   0  0  0  0  0  0  0  0  0  0  0  0
   11.0058    3.1753   24.3246 O   0  0  0  0  0  0  0  0  0  0  0  0
    6.2231    4.5449   22.6651 H   0  0  0  0  0  0  0  0  0  0  0  0
    7.5512    5.7077   22.5188 H   0  0  0  0  0  0  0  0  0  0  0  0
    7.3964    4.3929   21.3320 H   0  0  0  0  0  0  0  0  0  0  0  0
    8.6769    3.0790   22.6498 H   0  0  0  0  0  0  0  0  0  0  0  0
    7.7581    1.8627   25.6942 H   0  0  0  0  0  0  0  0  0  0  0  0
    9.1339    2.9097   26.0310 H   0  0  0  0  0  0  0  0  0  0  0  0
    9.2932   -0.4612   25.0005 H   0  0  0  0  0  0  0  0  0  0  0  0
    7.8524    0.2030   24.1865 H   0  0  0  0  0  0  0  0  0  0  0  0
    8.0914   -0.7663   18.5226 H   0  0  0  0  0  0  0  0  0  0  0  0
    4.7608    1.2432   17.1538 H   0  0  0  0  0  0  0  0  0  0  0  0
    3.3656    2.5874   18.6812 H   0  0  0  0  0  0  0  0  0  0  0  0
    2.7718    3.3258   20.9686 H   0  0  0  0  0  0  0  0  0  0  0  0
    4.1230    2.5438   22.8995 H   0  0  0  0  0  0  0  0  0  0  0  0
    6.0802    1.1071   22.5570 H   0  0  0  0  0  0  0  0  0  0  0  0
    6.8103   -1.4700   22.4837 H   0  0  0  0  0  0  0  0  0  0  0  0
    7.4129   -2.3344   21.0687 H   0  0  0  0  0  0  0  0  0  0  0  0
    9.7031   -2.1322   21.7899 H   0  0  0  0  0  0  0  0  0  0  0  0
    8.1763   -2.3478   24.4410 H   0  0  0  0  0  0  0  0  0  0  0  0
    8.4900   -3.6936   23.3499 H   0  0  0  0  0  0  0  0  0  0  0  0
   10.5821   -4.5145   23.1387 H   0  0  0  0  0  0  0  0  0  0  0  0
   12.6517   -3.2350   23.6986 H   0  0  0  0  0  0  0  0  0  0  0  0
   12.4007   -3.5907   25.4073 H   0  0  0  0  0  0  0  0  0  0  0  0
   12.7803   -4.9019   24.2616 H   0  0  0  0  0  0  0  0  0  0  0  0
   10.6444   -6.1339   25.0723 H   0  0  0  0  0  0  0  0  0  0  0  0
    9.0864   -5.3160   24.9687 H   0  0  0  0  0  0  0  0  0  0  0  0
   10.2771   -4.7969   26.1739 H   0  0  0  0  0  0  0  0  0  0  0  0
   11.5711   -2.0502   22.0268 H   0  0  0  0  0  0  0  0  0  0  0  0
   14.8198    0.6317   22.7090 H   0  0  0  0  0  0  0  0  0  0  0  0
   13.2299    2.2546   23.8074 H   0  0  0  0  0  0  0  0  0  0  0  0
  1  2  1  0
  2  3  1  0
  3  4  2  0
  3  5  1  0
  5  6  1  0
  6  7  1  0
  8  7  1  1
  8  9  1  0
  9 10  2  0
  9 11  1  0
 11 12  1  0
 12 13  2  0
 13 14  1  0
 14 15  2  0
 15 16  1  0
 16 17  2  0
 17 18  1  0
 18 19  2  0
 19 20  1  0
 20 21  2  0
 11 22  1  0
 22 23  1  0
 23 24  1  0
 24 25  1  0
 25 26  1  0
 26 27  1  0
 26 28  1  0
  8 29  1  0
 29 30  2  0
 30 31  1  0
 31 32  1  0
 31 33  2  0
 33 34  1  0
 34 35  2  0
 35 36  1  0
 36 37  2  0
 36  6  1  0
 23  8  1  0
 35 29  1  0
 21 12  1  0
 21 16  1  0
  1 38  1  0
  1 39  1  0
  1 40  1  0
  2 41  1  0
  5 42  1  0
  5 43  1  0
  7 44  1  0
  7 45  1  0
 13 46  1  0
 15 47  1  0
 17 48  1  0
 18 49  1  0
 19 50  1  0
 20 51  1  0
 22 52  1  0
 22 53  1  0
 23 54  1  6
 24 55  1  0
 24 56  1  0
 26 57  1  0
 27 58  1  0
 27 59  1  0
 27 60  1  0
 28 61  1  0
 28 62  1  0
 28 63  1  0
 30 64  1  0
 33 65  1  0
 34 66  1  0
M  END
$$$$
