
     RDKit          3D

 46 48  0  0  0  0  0  0  0  0999 V2000
  -13.9000   -2.8876  -22.6635 C   0  0  0  0  0  0  0  0  0  0  0  0
  -12.4872   -2.5319  -23.1119 C   0  0  0  0  0  0  0  0  0  0  0  0
  -12.2282   -1.0390  -22.9266 C   0  0  0  0  0  0  0  0  0  0  0  0
  -10.8165   -0.6671  -23.3760 C   0  0  1  0  0  0  0  0  0  0  0  0
  -10.6343    0.8508  -23.4313 C   0  0  0  0  0  0  0  0  0  0  0  0
   -9.8492   -1.4500  -22.5688 N   0  0  0  0  0  0  0  0  0  0  0  0
   -8.8789   -0.8345  -21.7995 C   0  0  0  0  0  0  0  0  0  0  0  0
   -8.9357    0.3280  -21.4562 O   0  0  0  0  0  0  0  0  0  0  0  0
   -7.6421   -1.6615  -21.4092 C   0  0  0  0  0  0  0  0  0  0  0  0
   -6.8230   -1.0560  -20.2972 C   0  0  0  0  0  0  0  0  0  0  0  0
   -7.1671   -1.3157  -18.9961 C   0  0  0  0  0  0  0  0  0  0  0  0
   -6.4848   -0.9059  -17.8941 N   0  0  0  0  0  0  0  0  0  0  0  0
   -5.4066   -0.1867  -18.0922 C   0  0  0  0  0  0  0  0  0  0  0  0
   -4.9642    0.2265  -19.3841 C   0  0  0  0  0  0  0  0  0  0  0  0
   -3.8613    1.1041  -19.5578 C   0  0  0  0  0  0  0  0  0  0  0  0
   -3.4182    1.4204  -20.8153 C   0  0  0  0  0  0  0  0  0  0  0  0
   -4.0729    0.8958  -21.9518 C   0  0  0  0  0  0  0  0  0  0  0  0
   -5.1959    0.1123  -21.8122 C   0  0  0  0  0  0  0  0  0  0  0  0
   -5.6824   -0.2261  -20.5212 C   0  0  0  0  0  0  0  0  0  0  0  0
   -9.9793   -2.9175  -22.6812 C   0  0  2  0  0  0  0  0  0  0  0  0
   -9.4492   -3.4753  -24.0037 C   0  0  0  0  0  0  0  0  0  0  0  0
  -11.4221   -3.3969  -22.4206 C   0  0  0  0  0  0  0  0  0  0  0  0
  -14.1251   -3.9473  -22.8192 H   0  0  0  0  0  0  0  0  0  0  0  0
  -14.0266   -2.6708  -21.5963 H   0  0  0  0  0  0  0  0  0  0  0  0
  -14.6391   -2.2944  -23.2126 H   0  0  0  0  0  0  0  0  0  0  0  0
  -12.3919   -2.7224  -24.1914 H   0  0  0  0  0  0  0  0  0  0  0  0
  -12.9635   -0.4520  -23.4964 H   0  0  0  0  0  0  0  0  0  0  0  0
  -12.3779   -0.7505  -21.8827 H   0  0  0  0  0  0  0  0  0  0  0  0
  -10.7034   -1.0224  -24.4111 H   0  0  0  0  0  0  0  0  0  0  0  0
  -10.8870    1.3196  -22.4780 H   0  0  0  0  0  0  0  0  0  0  0  0
  -11.3045    1.2431  -24.2051 H   0  0  0  0  0  0  0  0  0  0  0  0
   -9.6116    1.1471  -23.6835 H   0  0  0  0  0  0  0  0  0  0  0  0
   -7.9402   -2.6699  -21.1039 H   0  0  0  0  0  0  0  0  0  0  0  0
   -7.0360   -1.7649  -22.3182 H   0  0  0  0  0  0  0  0  0  0  0  0
   -8.0673   -1.8954  -18.7990 H   0  0  0  0  0  0  0  0  0  0  0  0
   -4.8603    0.1546  -17.2070 H   0  0  0  0  0  0  0  0  0  0  0  0
   -3.3809    1.4991  -18.6660 H   0  0  0  0  0  0  0  0  0  0  0  0
   -2.5625    2.0857  -20.9294 H   0  0  0  0  0  0  0  0  0  0  0  0
   -3.6898    1.0980  -22.9502 H   0  0  0  0  0  0  0  0  0  0  0  0
   -5.7416   -0.2361  -22.6852 H   0  0  0  0  0  0  0  0  0  0  0  0
   -9.3648   -3.3265  -21.8786 H   0  0  0  0  0  0  0  0  0  0  0  0
   -8.4073   -3.1844  -24.1650 H   0  0  0  0  0  0  0  0  0  0  0  0
  -10.0394   -3.1377  -24.8622 H   0  0  0  0  0  0  0  0  0  0  0  0
   -9.4905   -4.5712  -23.9871 H   0  0  0  0  0  0  0  0  0  0  0  0
  -11.5103   -4.4313  -22.7802 H   0  0  0  0  0  0  0  0  0  0  0  0
  -11.5820   -3.4732  -21.3385 H   0  0  0  0  0  0  0  0  0  0  0  0
  1  2  1  0
  2  3  1  0
  3  4  1  0
  4  5  1  0
  4  6  1  0
  6  7  1  0
  7  8  2  0
  7  9  1  0
  9 10  1  0
 10 11  2  0
 11 12  1  0
 12 13  2  0
 13 14  1  0
 14 15  2  0
 15 16  1  0
 16 17  2  0
 17 18  1  0
 18 19  2  0
  6 20  1  0
 20 21  1  0
 20 22  1  0
 22  2  1  0
 19 10  1  0
 19 14  1  0
  1 23  1  0
  1 24  1  0
  1 25  1  0
  2 26  1  0
  3 27  1  0
  3 28  1  0
  4 29  1  6
  5 30  1  0
  5 31  1  0
  5 32  1  0
  9 33  1  0
  9 34  1  0
 11 35  1  0
 13 36  1  0
 15 37  1  0
 16 38  1  0
 17 39  1  0
 18 40  1  0
 20 41  1  1
 21 42  1  0
 21 43  1  0
 21 44  1  0
 22 45  1  0
 22 46  1  0
M  END
