
     RDKit          3D

 46 48  0  0  0  0  0  0  0  0999 V2000
   14.3054   -1.6790   22.5070 C   0  0  0  0  0  0  0  0  0  0  0  0
   12.8916   -1.3573   22.9774 C   0  0  1  0  0  0  0  0  0  0  0  0
   12.5853    0.1242   22.7739 C   0  0  0  0  0  0  0  0  0  0  0  0
   11.1722    0.4621   23.2451 C   0  0  1  0  0  0  0  0  0  0  0  0
   10.9465    1.9747   23.2802 C   0  0  0  0  0  0  0  0  0  0  0  0
   10.2130   -0.3616   22.4694 N   0  0  0  0  0  0  0  0  0  0  0  0
    9.2105    0.2128   21.7097 C   0  0  0  0  0  0  0  0  0  0  0  0
    9.2264    1.3708   21.3473 O   0  0  0  0  0  0  0  0  0  0  0  0
    7.9913   -0.6560   21.3568 C   0  0  0  0  0  0  0  0  0  0  0  0
    7.1335   -0.0927   20.2518 C   0  0  0  0  0  0  0  0  0  0  0  0
    7.4601   -0.3633   18.9484 C   0  0  0  0  0  0  0  0  0  0  0  0
    6.7450    0.0085   17.8537 N   0  0  0  0  0  0  0  0  0  0  0  0
    5.6502    0.6991   18.0617 C   0  0  0  0  0  0  0  0  0  0  0  0
    5.2206    1.1202   19.3554 C   0  0  0  0  0  0  0  0  0  0  0  0
    4.0959    1.9680   19.5370 C   0  0  0  0  0  0  0  0  0  0  0  0
    3.6679    2.2916   20.7979 C   0  0  0  0  0  0  0  0  0  0  0  0
    4.3594    1.8048   21.9293 C   0  0  0  0  0  0  0  0  0  0  0  0
    5.5021    1.0521   21.7800 C   0  0  0  0  0  0  0  0  0  0  0  0
    5.9735    0.7072   20.4851 C   0  0  0  0  0  0  0  0  0  0  0  0
   10.3884   -1.8227   22.6021 C   0  0  2  0  0  0  0  0  0  0  0  0
    9.9004   -2.3742   23.9433 C   0  0  0  0  0  0  0  0  0  0  0  0
   11.8394   -2.2640   22.3208 C   0  0  0  0  0  0  0  0  0  0  0  0
   14.5645   -2.7290   22.6748 H   0  0  0  0  0  0  0  0  0  0  0  0
   14.4051   -1.4759   21.4342 H   0  0  0  0  0  0  0  0  0  0  0  0
   15.0371   -1.0557   23.0321 H   0  0  0  0  0  0  0  0  0  0  0  0
   12.8227   -1.5330   24.0614 H   0  0  0  0  0  0  0  0  0  0  0  0
   13.3138    0.7415   23.3199 H   0  0  0  0  0  0  0  0  0  0  0  0
   12.7064    0.4000   21.7229 H   0  0  0  0  0  0  0  0  0  0  0  0
   11.0894    0.1205   24.2876 H   0  0  0  0  0  0  0  0  0  0  0  0
   11.1670    2.4352   22.3149 H   0  0  0  0  0  0  0  0  0  0  0  0
   11.6196    2.3989   24.0345 H   0  0  0  0  0  0  0  0  0  0  0  0
    9.9205    2.2452   23.5478 H   0  0  0  0  0  0  0  0  0  0  0  0
    8.3130   -1.6601   21.0615 H   0  0  0  0  0  0  0  0  0  0  0  0
    7.4060   -0.7623   22.2790 H   0  0  0  0  0  0  0  0  0  0  0  0
    8.3730   -0.9197   18.7427 H   0  0  0  0  0  0  0  0  0  0  0  0
    5.0772    1.0100   17.1822 H   0  0  0  0  0  0  0  0  0  0  0  0
    3.5871    2.3343   18.6487 H   0  0  0  0  0  0  0  0  0  0  0  0
    2.7954    2.9335   20.9183 H   0  0  0  0  0  0  0  0  0  0  0  0
    3.9898    2.0119   22.9318 H   0  0  0  0  0  0  0  0  0  0  0  0
    6.0745    0.7339   22.6474 H   0  0  0  0  0  0  0  0  0  0  0  0
    9.7709   -2.2623   21.8182 H   0  0  0  0  0  0  0  0  0  0  0  0
    8.8536   -2.1112   24.1205 H   0  0  0  0  0  0  0  0  0  0  0  0
   10.4967   -2.0057   24.7847 H   0  0  0  0  0  0  0  0  0  0  0  0
    9.9735   -3.4685   23.9431 H   0  0  0  0  0  0  0  0  0  0  0  0
   11.9648   -3.2895   22.6947 H   0  0  0  0  0  0  0  0  0  0  0  0
   11.9807   -2.3532   21.2371 H   0  0  0  0  0  0  0  0  0  0  0  0
  1  2  1  0
  2  3  1  0
  3  4  1  0
  4  5  1  0
  4  6  1  0
  6  7  1  0
  7  8  2  0
  7  9  1  0
  9 10  1  0
 10 11  2  0
 11 12  1  0
 12 13  2  0
 13 14  1  0
 14 15  2  0
 15 16  1  0
 16 17  2  0
 17 18  1  0
 18 19  2  0
  6 20  1  0
 20 21  1  0
 20 22  1  0
 22  2  1  0
 19 10  1  0
 19 14  1  0
  1 23  1  0
  1 24  1  0
  1 25  1  0
  2 26  1  1
  3 27  1  0
  3 28  1  0
  4 29  1  1
  5 30  1  0
  5 31  1  0
  5 32  1  0
  9 33  1  0
  9 34  1  0
 11 35  1  0
 13 36  1  0
 15 37  1  0
 16 38  1  0
 17 39  1  0
 18 40  1  0
 20 41  1  1
 21 42  1  0
 21 43  1  0
 21 44  1  0
 22 45  1  0
 22 46  1  0
M  END
$$$$
