
     RDKit          3D

 55 60  0  0  0  0  0  0  0  0999 V2000
   -8.4218   -3.8295  -23.7059 C   0  0  0  0  0  0  0  0  0  0  0  0
   -8.5276   -2.8355  -22.5584 C   0  0  1  0  0  0  0  0  0  0  0  0
   -7.2183   -2.5691  -21.8066 C   0  0  0  0  0  0  0  0  0  0  0  0
   -7.4965   -1.3129  -21.1498 N   0  0  0  0  0  0  0  0  0  0  0  0
   -6.6533   -0.8053  -20.1304 C   0  0  0  0  0  0  0  0  0  0  0  0
   -6.8770   -1.1633  -18.8222 C   0  0  0  0  0  0  0  0  0  0  0  0
   -6.1104   -0.7719  -17.7755 N   0  0  0  0  0  0  0  0  0  0  0  0
   -5.0838    0.0076  -18.0174 C   0  0  0  0  0  0  0  0  0  0  0  0
   -4.7545    0.4739  -19.3231 C   0  0  0  0  0  0  0  0  0  0  0  0
   -3.6674    1.3607  -19.5364 C   0  0  0  0  0  0  0  0  0  0  0  0
   -3.3245    1.7582  -20.7975 C   0  0  0  0  0  0  0  0  0  0  0  0
   -4.0485    1.2688  -21.9057 C   0  0  0  0  0  0  0  0  0  0  0  0
   -5.1393    0.4525  -21.7268 C   0  0  0  0  0  0  0  0  0  0  0  0
   -5.5276    0.0347  -20.4221 C   0  0  0  0  0  0  0  0  0  0  0  0
   -8.4812   -0.5812  -21.7836 C   0  0  0  0  0  0  0  0  0  0  0  0
   -8.8214    0.5351  -21.4691 O   0  0  0  0  0  0  0  0  0  0  0  0
   -9.0660   -1.4329  -22.9391 C   0  0  1  0  0  0  0  0  0  0  0  0
   -8.4998   -0.9202  -24.2870 C   0  0  0  0  0  0  0  0  0  0  0  0
   -8.9944    0.4092  -24.6157 N   0  0  0  0  0  0  0  0  0  0  0  0
   -8.1297    1.3263  -25.3193 C   0  0  0  0  0  0  0  0  0  0  0  0
   -7.3838    2.2926  -24.4342 C   0  0  0  0  0  0  0  0  0  0  0  0
   -7.8115    2.9725  -23.3402 C   0  0  0  0  0  0  0  0  0  0  0  0
   -6.7930    3.7821  -22.9292 O   0  0  0  0  0  0  0  0  0  0  0  0
   -5.7896    3.5292  -23.7863 C   0  0  0  0  0  0  0  0  0  0  0  0
   -6.0661    2.6530  -24.6946 N   0  0  0  0  0  0  0  0  0  0  0  0
  -10.2252    0.8689  -24.2528 C   0  0  0  0  0  0  0  0  0  0  0  0
  -10.5707    2.0368  -24.4174 O   0  0  0  0  0  0  0  0  0  0  0  0
  -11.1209   -0.1493  -23.6315 C   0  0  0  0  0  0  0  0  0  0  0  0
  -12.4902    0.1198  -23.6006 C   0  0  0  0  0  0  0  0  0  0  0  0
  -13.3621   -0.7938  -23.0401 C   0  0  0  0  0  0  0  0  0  0  0  0
  -12.8286   -1.9682  -22.5226 C   0  0  0  0  0  0  0  0  0  0  0  0
  -13.6607   -2.8616  -21.9571 F   0  0  0  0  0  0  0  0  0  0  0  0
  -11.4778   -2.2589  -22.5540 C   0  0  0  0  0  0  0  0  0  0  0  0
  -10.5804   -1.3075  -23.0495 C   0  0  0  0  0  0  0  0  0  0  0  0
   -9.3760   -3.9205  -24.2374 H   0  0  0  0  0  0  0  0  0  0  0  0
   -8.1337   -4.8259  -23.3630 H   0  0  0  0  0  0  0  0  0  0  0  0
   -7.6645   -3.5171  -24.4328 H   0  0  0  0  0  0  0  0  0  0  0  0
   -9.2235   -3.2136  -21.8037 H   0  0  0  0  0  0  0  0  0  0  0  0
   -6.3612   -2.4799  -22.4923 H   0  0  0  0  0  0  0  0  0  0  0  0
   -6.9661   -3.3403  -21.0741 H   0  0  0  0  0  0  0  0  0  0  0  0
   -7.7468   -1.7651  -18.5635 H   0  0  0  0  0  0  0  0  0  0  0  0
   -4.4726    0.3306  -17.1710 H   0  0  0  0  0  0  0  0  0  0  0  0
   -3.1239    1.7225  -18.6716 H   0  0  0  0  0  0  0  0  0  0  0  0
   -2.5044    2.4563  -20.9477 H   0  0  0  0  0  0  0  0  0  0  0  0
   -3.7423    1.5450  -22.9097 H   0  0  0  0  0  0  0  0  0  0  0  0
   -5.7102    0.1171  -22.5866 H   0  0  0  0  0  0  0  0  0  0  0  0
   -8.7825   -1.6319  -25.0740 H   0  0  0  0  0  0  0  0  0  0  0  0
   -7.4061   -0.8673  -24.2436 H   0  0  0  0  0  0  0  0  0  0  0  0
   -8.7575    1.8668  -26.0335 H   0  0  0  0  0  0  0  0  0  0  0  0
   -7.4219    0.7399  -25.9083 H   0  0  0  0  0  0  0  0  0  0  0  0
   -8.7144    3.0042  -22.7492 H   0  0  0  0  0  0  0  0  0  0  0  0
   -4.8555    4.0540  -23.6102 H   0  0  0  0  0  0  0  0  0  0  0  0
  -12.8387    1.0718  -23.9879 H   0  0  0  0  0  0  0  0  0  0  0  0
  -14.4312   -0.6234  -22.9565 H   0  0  0  0  0  0  0  0  0  0  0  0
  -11.1569   -3.2131  -22.1536 H   0  0  0  0  0  0  0  0  0  0  0  0
  1  2  1  0
  2  3  1  0
  3  4  1  0
  4  5  1  0
  5  6  2  0
  6  7  1  0
  7  8  2  0
  8  9  1  0
  9 10  2  0
 10 11  1  0
 11 12  2  0
 12 13  1  0
 13 14  2  0
  4 15  1  0
 15 16  2  0
 15 17  1  0
 17 18  1  6
 18 19  1  0
 19 20  1  0
 20 21  1  0
 21 22  2  0
 22 23  1  0
 23 24  1  0
 24 25  2  0
 19 26  1  0
 26 27  2  0
 26 28  1  0
 28 29  2  0
 29 30  1  0
 30 31  2  0
 31 32  1  0
 31 33  1  0
 33 34  2  0
 17  2  1  0
 25 21  1  0
 34 28  1  0
 14  5  1  0
 34 17  1  0
 14  9  1  0
  1 35  1  0
  1 36  1  0
  1 37  1  0
  2 38  1  1
  3 39  1  0
  3 40  1  0
  6 41  1  0
  8 42  1  0
 10 43  1  0
 11 44  1  0
 12 45  1  0
 13 46  1  0
 18 47  1  0
 18 48  1  0
 20 49  1  0
 20 50  1  0
 22 51  1  0
 24 52  1  0
 29 53  1  0
 30 54  1  0
 33 55  1  0
M  END
