
     RDKit          3D

 67 72  0  0  0  0  0  0  0  0999 V2000
   -7.0120    3.6321  -22.4893 C   0  0  0  0  0  0  0  0  0  0  0  0
   -7.7966    2.6906  -23.2657 N   0  0  0  0  0  0  0  0  0  0  0  0
   -7.5044    2.5221  -24.5754 C   0  0  0  0  0  0  0  0  0  0  0  0
   -6.7344    3.2403  -25.2013 O   0  0  0  0  0  0  0  0  0  0  0  0
   -8.1560    1.3528  -25.3198 C   0  0  0  0  0  0  0  0  0  0  0  0
   -8.9852    0.4584  -24.5546 N   0  0  0  0  0  0  0  0  0  0  0  0
   -8.5090   -0.8877  -24.2815 C   0  0  0  0  0  0  0  0  0  0  0  0
   -9.0661   -1.4241  -22.9396 C   0  0  2  0  0  0  0  0  0  0  0  0
   -8.4680   -0.5775  -21.7886 C   0  0  0  0  0  0  0  0  0  0  0  0
   -8.7761    0.5666  -21.5097 O   0  0  0  0  0  0  0  0  0  0  0  0
   -7.5004   -1.3158  -21.1445 N   0  0  0  0  0  0  0  0  0  0  0  0
   -6.6542   -0.8007  -20.1227 C   0  0  0  0  0  0  0  0  0  0  0  0
   -6.8862   -1.1503  -18.8164 C   0  0  0  0  0  0  0  0  0  0  0  0
   -6.1262   -0.7523  -17.7658 N   0  0  0  0  0  0  0  0  0  0  0  0
   -5.1021    0.0272  -18.0109 C   0  0  0  0  0  0  0  0  0  0  0  0
   -4.7556    0.4824  -19.3157 C   0  0  0  0  0  0  0  0  0  0  0  0
   -3.6670    1.3661  -19.5326 C   0  0  0  0  0  0  0  0  0  0  0  0
   -3.3269    1.7601  -20.7947 C   0  0  0  0  0  0  0  0  0  0  0  0
   -4.0615    1.2851  -21.9027 C   0  0  0  0  0  0  0  0  0  0  0  0
   -5.1421    0.4575  -21.7216 C   0  0  0  0  0  0  0  0  0  0  0  0
   -5.5313    0.0412  -20.4168 C   0  0  0  0  0  0  0  0  0  0  0  0
   -7.2174   -2.5726  -21.8087 C   0  0  0  0  0  0  0  0  0  0  0  0
   -8.5289   -2.8246  -22.5596 C   0  0  2  0  0  0  0  0  0  0  0  0
   -8.4257   -3.8419  -23.6963 C   0  0  0  0  0  0  0  0  0  0  0  0
   -8.1141   -5.1612  -23.2145 N   0  0  0  0  0  0  0  0  0  0  0  0
   -6.8594   -5.7014  -23.1445 C   0  0  0  0  0  0  0  0  0  0  0  0
   -5.4564   -4.9947  -23.9002 S   0  0  0  0  0  0  0  0  0  0  0  0
   -4.5358   -6.3535  -23.3284 C   0  0  0  0  0  0  0  0  0  0  0  0
   -5.1929   -7.2302  -22.6454 N   0  0  0  0  0  0  0  0  0  0  0  0
   -6.5233   -6.8752  -22.5385 C   0  0  0  0  0  0  0  0  0  0  0  0
   -7.4912   -7.7863  -21.8463 C   0  0  0  0  0  0  0  0  0  0  0  0
  -10.5760   -1.3046  -23.0392 C   0  0  0  0  0  0  0  0  0  0  0  0
  -11.4678   -2.2562  -22.5355 C   0  0  0  0  0  0  0  0  0  0  0  0
  -12.8227   -1.9789  -22.4838 C   0  0  0  0  0  0  0  0  0  0  0  0
  -13.8657   -3.1084  -21.6617 Cl  0  0  0  0  0  0  0  0  0  0  0  0
  -13.3602   -0.8044  -23.0114 C   0  0  0  0  0  0  0  0  0  0  0  0
  -12.4957    0.1047  -23.5868 C   0  0  0  0  0  0  0  0  0  0  0  0
  -11.1268   -0.1511  -23.6177 C   0  0  0  0  0  0  0  0  0  0  0  0
  -10.2535    0.8715  -24.2600 C   0  0  0  0  0  0  0  0  0  0  0  0
  -10.6470    2.0136  -24.4801 O   0  0  0  0  0  0  0  0  0  0  0  0
   -5.9478    3.5504  -22.7458 H   0  0  0  0  0  0  0  0  0  0  0  0
   -7.3124    4.6751  -22.6488 H   0  0  0  0  0  0  0  0  0  0  0  0
   -7.1415    3.3851  -21.4326 H   0  0  0  0  0  0  0  0  0  0  0  0
   -8.3451    2.0029  -22.7540 H   0  0  0  0  0  0  0  0  0  0  0  0
   -7.3399    0.7800  -25.7714 H   0  0  0  0  0  0  0  0  0  0  0  0
   -8.7381    1.7797  -26.1392 H   0  0  0  0  0  0  0  0  0  0  0  0
   -8.8097   -1.5643  -25.0926 H   0  0  0  0  0  0  0  0  0  0  0  0
   -7.4136   -0.8654  -24.2398 H   0  0  0  0  0  0  0  0  0  0  0  0
   -7.7515   -1.7631  -18.5655 H   0  0  0  0  0  0  0  0  0  0  0  0
   -4.5061    0.3655  -17.1604 H   0  0  0  0  0  0  0  0  0  0  0  0
   -3.1203    1.7300  -18.6688 H   0  0  0  0  0  0  0  0  0  0  0  0
   -2.5026    2.4487  -20.9548 H   0  0  0  0  0  0  0  0  0  0  0  0
   -3.7858    1.6049  -22.9032 H   0  0  0  0  0  0  0  0  0  0  0  0
   -5.7071    0.1188  -22.5860 H   0  0  0  0  0  0  0  0  0  0  0  0
   -6.9732   -3.3579  -21.0875 H   0  0  0  0  0  0  0  0  0  0  0  0
   -6.3603   -2.4809  -22.4933 H   0  0  0  0  0  0  0  0  0  0  0  0
   -9.2083   -3.2198  -21.7994 H   0  0  0  0  0  0  0  0  0  0  0  0
   -9.3675   -3.8665  -24.2607 H   0  0  0  0  0  0  0  0  0  0  0  0
   -7.6398   -3.5355  -24.3914 H   0  0  0  0  0  0  0  0  0  0  0  0
   -8.8618   -5.6878  -22.7861 H   0  0  0  0  0  0  0  0  0  0  0  0
   -3.4895   -6.4508  -23.5813 H   0  0  0  0  0  0  0  0  0  0  0  0
   -6.9208   -8.6240  -21.4508 H   0  0  0  0  0  0  0  0  0  0  0  0
   -8.2522   -8.1962  -22.5248 H   0  0  0  0  0  0  0  0  0  0  0  0
   -8.0207   -7.3151  -21.0082 H   0  0  0  0  0  0  0  0  0  0  0  0
  -11.1309   -3.1965  -22.1146 H   0  0  0  0  0  0  0  0  0  0  0  0
  -14.4247   -0.6073  -22.9295 H   0  0  0  0  0  0  0  0  0  0  0  0
  -12.8566    1.0437  -23.9946 H   0  0  0  0  0  0  0  0  0  0  0  0
  1  2  1  0
  2  3  1  0
  3  4  2  0
  3  5  1  0
  5  6  1  0
  6  7  1  0
  8  7  1  6
  8  9  1  0
  9 10  2  0
  9 11  1  0
 11 12  1  0
 12 13  2  0
 13 14  1  0
 14 15  2  0
 15 16  1  0
 16 17  2  0
 17 18  1  0
 18 19  2  0
 19 20  1  0
 20 21  2  0
 11 22  1  0
 22 23  1  0
 23 24  1  0
 24 25  1  0
 25 26  1  0
 26 27  1  0
 27 28  1  0
 28 29  2  0
 29 30  1  0
 30 31  1  0
  8 32  1  0
 32 33  2  0
 33 34  1  0
 34 35  1  0
 34 36  2  0
 36 37  1  0
 37 38  2  0
 38 39  1  0
 39 40  2  0
 39  6  1  0
 23  8  1  0
 30 26  2  0
 38 32  1  0
 21 12  1  0
 21 16  1  0
  1 41  1  0
  1 42  1  0
  1 43  1  0
  2 44  1  0
  5 45  1  0
  5 46  1  0
  7 47  1  0
  7 48  1  0
 13 49  1  0
 15 50  1  0
 17 51  1  0
 18 52  1  0
 19 53  1  0
 20 54  1  0
 22 55  1  0
 22 56  1  0
 23 57  1  1
 24 58  1  0
 24 59  1  0
 25 60  1  0
 28 61  1  0
 31 62  1  0
 31 63  1  0
 31 64  1  0
 33 65  1  0
 36 66  1  0
 37 67  1  0
M  END
