
     RDKit          3D

 67 72  0  0  0  0  0  0  0  0999 V2000
    7.2826    4.6539   22.3833 C   0  0  0  0  0  0  0  0  0  0  0  0
    8.1100    3.7473   23.1567 N   0  0  0  0  0  0  0  0  0  0  0  0
    7.8512    3.5920   24.4750 C   0  0  0  0  0  0  0  0  0  0  0  0
    7.0752    4.2987   25.1066 O   0  0  0  0  0  0  0  0  0  0  0  0
    8.5514    2.4535   25.2229 C   0  0  0  0  0  0  0  0  0  0  0  0
    9.3885    1.5701   24.4536 N   0  0  0  0  0  0  0  0  0  0  0  0
    8.9444    0.2070   24.2122 C   0  0  0  0  0  0  0  0  0  0  0  0
    9.4870   -0.3355   22.8668 C   0  0  2  0  0  0  0  0  0  0  0  0
    8.8405    0.4755   21.7163 C   0  0  0  0  0  0  0  0  0  0  0  0
    9.1102    1.6230   21.4128 O   0  0  0  0  0  0  0  0  0  0  0  0
    7.8802   -0.2997   21.1054 N   0  0  0  0  0  0  0  0  0  0  0  0
    6.9978    0.1751   20.0948 C   0  0  0  0  0  0  0  0  0  0  0  0
    7.2110   -0.1891   18.7893 C   0  0  0  0  0  0  0  0  0  0  0  0
    6.4175    0.1706   17.7497 N   0  0  0  0  0  0  0  0  0  0  0  0
    5.3775    0.9253   18.0053 C   0  0  0  0  0  0  0  0  0  0  0  0
    5.0469    1.3918   19.3102 C   0  0  0  0  0  0  0  0  0  0  0  0
    3.9389    2.2485   19.5374 C   0  0  0  0  0  0  0  0  0  0  0  0
    3.6154    2.6533   20.8004 C   0  0  0  0  0  0  0  0  0  0  0  0
    4.3870    2.2169   21.8991 C   0  0  0  0  0  0  0  0  0  0  0  0
    5.4862    1.4167   21.7070 C   0  0  0  0  0  0  0  0  0  0  0  0
    5.8584    0.9902   20.4005 C   0  0  0  0  0  0  0  0  0  0  0  0
    7.6471   -1.5529   21.7953 C   0  0  0  0  0  0  0  0  0  0  0  0
    8.9811   -1.7563   22.5208 C   0  0  2  0  0  0  0  0  0  0  0  0
    8.9313   -2.7574   23.6752 C   0  0  0  0  0  0  0  0  0  0  0  0
    8.6464   -4.0925   23.2211 N   0  0  0  0  0  0  0  0  0  0  0  0
    7.4061   -4.6683   23.1875 C   0  0  0  0  0  0  0  0  0  0  0  0
    6.0006   -3.9886   23.9630 S   0  0  0  0  0  0  0  0  0  0  0  0
    5.1063   -5.3815   23.4331 C   0  0  0  0  0  0  0  0  0  0  0  0
    5.7727   -6.2506   22.7495 N   0  0  0  0  0  0  0  0  0  0  0  0
    7.0899   -5.8607   22.6075 C   0  0  0  0  0  0  0  0  0  0  0  0
    8.0677   -6.7557   21.9083 C   0  0  0  0  0  0  0  0  0  0  0  0
   10.9948   -0.1726   22.9310 C   0  0  0  0  0  0  0  0  0  0  0  0
   11.9017   -1.1072   22.4225 C   0  0  0  0  0  0  0  0  0  0  0  0
   13.2469   -0.7933   22.3364 C   0  0  0  0  0  0  0  0  0  0  0  0
   14.3030   -1.9067   21.5091 Cl  0  0  0  0  0  0  0  0  0  0  0  0
   13.7626    0.4040   22.8335 C   0  0  0  0  0  0  0  0  0  0  0  0
   12.8857    1.2980   23.4137 C   0  0  0  0  0  0  0  0  0  0  0  0
   11.5255    1.0050   23.4790 C   0  0  0  0  0  0  0  0  0  0  0  0
   10.6380    2.0133   24.1245 C   0  0  0  0  0  0  0  0  0  0  0  0
   11.0040    3.1693   24.3179 O   0  0  0  0  0  0  0  0  0  0  0  0
    6.2269    4.5470   22.6646 H   0  0  0  0  0  0  0  0  0  0  0  0
    7.5570    5.7073   22.5197 H   0  0  0  0  0  0  0  0  0  0  0  0
    7.3959    4.3935   21.3279 H   0  0  0  0  0  0  0  0  0  0  0  0
    8.6663    3.0668   22.6437 H   0  0  0  0  0  0  0  0  0  0  0  0
    7.7617    1.8657   25.7014 H   0  0  0  0  0  0  0  0  0  0  0  0
    9.1390    2.9096   26.0224 H   0  0  0  0  0  0  0  0  0  0  0  0
    9.2816   -0.4477   25.0269 H   0  0  0  0  0  0  0  0  0  0  0  0
    7.8482    0.1983   24.1945 H   0  0  0  0  0  0  0  0  0  0  0  0
    8.0875   -0.7817   18.5288 H   0  0  0  0  0  0  0  0  0  0  0  0
    4.7539    1.2331   17.1630 H   0  0  0  0  0  0  0  0  0  0  0  0
    3.3635    2.5830   18.6804 H   0  0  0  0  0  0  0  0  0  0  0  0
    2.7758    3.3214   20.9680 H   0  0  0  0  0  0  0  0  0  0  0  0
    4.1243    2.5452   22.9004 H   0  0  0  0  0  0  0  0  0  0  0  0
    6.0792    1.1079   22.5638 H   0  0  0  0  0  0  0  0  0  0  0  0
    7.4093   -2.3563   21.0921 H   0  0  0  0  0  0  0  0  0  0  0  0
    6.8028   -1.4739   22.4973 H   0  0  0  0  0  0  0  0  0  0  0  0
    9.6547   -2.1448   21.7519 H   0  0  0  0  0  0  0  0  0  0  0  0
    9.8855   -2.7468   24.2189 H   0  0  0  0  0  0  0  0  0  0  0  0
    8.1524   -2.4617   24.3827 H   0  0  0  0  0  0  0  0  0  0  0  0
    9.3991   -4.6051   22.7845 H   0  0  0  0  0  0  0  0  0  0  0  0
    4.0689   -5.5036   23.7107 H   0  0  0  0  0  0  0  0  0  0  0  0
    7.5126   -7.6152   21.5387 H   0  0  0  0  0  0  0  0  0  0  0  0
    8.8545   -7.1333   22.5761 H   0  0  0  0  0  0  0  0  0  0  0  0
    8.5654   -6.2837   21.0514 H   0  0  0  0  0  0  0  0  0  0  0  0
   11.5822   -2.0632   22.0239 H   0  0  0  0  0  0  0  0  0  0  0  0
   14.8191    0.6292   22.7249 H   0  0  0  0  0  0  0  0  0  0  0  0
   13.2289    2.2532   23.7986 H   0  0  0  0  0  0  0  0  0  0  0  0
  1  2  1  0
  2  3  1  0
  3  4  2  0
  3  5  1  0
  5  6  1  0
  6  7  1  0
  8  7  1  1
  8  9  1  0
  9 10  2  0
  9 11  1  0
 11 12  1  0
 12 13  2  0
 13 14  1  0
 14 15  2  0
 15 16  1  0
 16 17  2  0
 17 18  1  0
 18 19  2  0
 19 20  1  0
 20 21  2  0
 11 22  1  0
 22 23  1  0
 23 24  1  0
 24 25  1  0
 25 26  1  0
 26 27  1  0
 27 28  1  0
 28 29  2  0
 29 30  1  0
 30 31  1  0
  8 32  1  0
 32 33  2  0
 33 34  1  0
 34 35  1  0
 34 36  2  0
 36 37  1  0
 37 38  2  0
 38 39  1  0
 39 40  2  0
 39  6  1  0
 23  8  1  0
 30 26  2  0
 38 32  1  0
 21 12  1  0
 21 16  1  0
  1 41  1  0
  1 42  1  0
  1 43  1  0
  2 44  1  0
  5 45  1  0
  5 46  1  0
  7 47  1  0
  7 48  1  0
 13 49  1  0
 15 50  1  0
 17 51  1  0
 18 52  1  0
 19 53  1  0
 20 54  1  0
 22 55  1  0
 22 56  1  0
 23 57  1  6
 24 58  1  0
 24 59  1  0
 25 60  1  0
 28 61  1  0
 31 62  1  0
 31 63  1  0
 31 64  1  0
 33 65  1  0
 36 66  1  0
 37 67  1  0
M  END
$$$$
