
     RDKit          3D

 38 40  0  0  0  0  0  0  0  0999 V2000
    5.3281   -1.9944   21.9661 O   0  0  0  0  0  0  0  0  0  0  0  0
    6.3544   -1.3643   22.1411 C   0  0  0  0  0  0  0  0  0  0  0  0
    6.8564   -0.3800   21.0656 C   0  0  0  0  0  0  0  0  0  0  0  0
    5.8596   -0.1931   19.9547 C   0  0  0  0  0  0  0  0  0  0  0  0
    6.0367   -0.8168   18.7491 C   0  0  0  0  0  0  0  0  0  0  0  0
    5.2307   -0.6828   17.6638 N   0  0  0  0  0  0  0  0  0  0  0  0
    4.1695    0.0750   17.8027 C   0  0  0  0  0  0  0  0  0  0  0  0
    3.8193    0.7280   19.0165 C   0  0  0  0  0  0  0  0  0  0  0  0
    2.6261    1.4819   19.1477 C   0  0  0  0  0  0  0  0  0  0  0  0
    2.3023    2.0926   20.3272 C   0  0  0  0  0  0  0  0  0  0  0  0
    3.1832    2.0022   21.4261 C   0  0  0  0  0  0  0  0  0  0  0  0
    4.3521    1.2871   21.3250 C   0  0  0  0  0  0  0  0  0  0  0  0
    4.6935    0.6102   20.1222 C   0  0  0  0  0  0  0  0  0  0  0  0
    7.0826   -1.4841   23.3116 N   0  0  0  0  0  0  0  0  0  0  0  0
    6.5837   -2.4666   24.2823 C   0  0  0  0  0  0  0  0  0  0  0  0
    6.9066   -3.9092   23.9478 C   0  0  0  0  0  0  0  0  0  0  0  0
    8.1501   -4.3560   23.7904 C   0  0  0  0  0  0  0  0  0  0  0  0
    9.3843   -3.5015   23.9695 C   0  0  0  0  0  0  0  0  0  0  0  0
    9.4569   -2.2800   23.0378 C   0  0  0  0  0  0  0  0  0  0  0  0
    8.4984   -1.1470   23.4154 C   0  0  0  0  0  0  0  0  0  0  0  0
    7.7950   -0.7647   20.6384 H   0  0  0  0  0  0  0  0  0  0  0  0
    7.0929    0.5923   21.5197 H   0  0  0  0  0  0  0  0  0  0  0  0
    6.8841   -1.4821   18.5965 H   0  0  0  0  0  0  0  0  0  0  0  0
    3.5138    0.1836   16.9352 H   0  0  0  0  0  0  0  0  0  0  0  0
    1.9831    1.5961   18.2846 H   0  0  0  0  0  0  0  0  0  0  0  0
    1.3698    2.6458   20.4216 H   0  0  0  0  0  0  0  0  0  0  0  0
    2.9322    2.5131   22.3510 H   0  0  0  0  0  0  0  0  0  0  0  0
    5.0225    1.2433   22.1760 H   0  0  0  0  0  0  0  0  0  0  0  0
    7.0312   -2.2127   25.2495 H   0  0  0  0  0  0  0  0  0  0  0  0
    5.5060   -2.3341   24.3857 H   0  0  0  0  0  0  0  0  0  0  0  0
    6.0664   -4.5871   23.7956 H   0  0  0  0  0  0  0  0  0  0  0  0
    8.2927   -5.3874   23.4715 H   0  0  0  0  0  0  0  0  0  0  0  0
    9.4385   -3.1474   25.0090 H   0  0  0  0  0  0  0  0  0  0  0  0
   10.2751   -4.1191   23.8179 H   0  0  0  0  0  0  0  0  0  0  0  0
    9.2463   -2.5996   22.0126 H   0  0  0  0  0  0  0  0  0  0  0  0
   10.4847   -1.8904   23.0321 H   0  0  0  0  0  0  0  0  0  0  0  0
    8.6875   -0.8708   24.4580 H   0  0  0  0  0  0  0  0  0  0  0  0
    8.7015   -0.2536   22.8210 H   0  0  0  0  0  0  0  0  0  0  0  0
  1  2  2  0
  2  3  1  0
  3  4  1  0
  4  5  2  0
  5  6  1  0
  6  7  2  0
  7  8  1  0
  8  9  2  0
  9 10  1  0
 10 11  2  0
 11 12  1  0
 12 13  2  0
  2 14  1  0
 14 15  1  0
 15 16  1  0
 16 17  2  0
 17 18  1  0
 18 19  1  0
 19 20  1  0
 13  4  1  0
 20 14  1  0
 13  8  1  0
  3 21  1  0
  3 22  1  0
  5 23  1  0
  7 24  1  0
  9 25  1  0
 10 26  1  0
 11 27  1  0
 12 28  1  0
 15 29  1  0
 15 30  1  0
 16 31  1  0
 17 32  1  0
 18 33  1  0
 18 34  1  0
 19 35  1  0
 19 36  1  0
 20 37  1  0
 20 38  1  0
M  END
$$$$
