
     RDKit          3D

 52 54  0  0  0  0  0  0  0  0999 V2000
   -8.1385   -7.3289  -29.4003 C   0  0  0  0  0  0  0  0  0  0  0  0
   -7.2551   -6.8707  -28.2325 C   0  0  0  0  0  0  0  0  0  0  0  0
   -5.7871   -7.1354  -28.5773 C   0  0  0  0  0  0  0  0  0  0  0  0
   -7.3899   -5.3695  -27.9341 C   0  0  0  0  0  0  0  0  0  0  0  0
   -8.7638   -4.8895  -27.4219 C   0  0  0  0  0  0  0  0  0  0  0  0
   -9.8701   -5.1864  -28.4461 C   0  0  0  0  0  0  0  0  0  0  0  0
   -9.1200   -5.5461  -26.0794 C   0  0  0  0  0  0  0  0  0  0  0  0
   -8.0760   -5.2210  -25.0047 C   0  0  0  0  0  0  0  0  0  0  0  0
   -7.8288   -3.7772  -24.9091 N   0  0  0  0  0  0  0  0  0  0  0  0
   -7.6151   -3.2132  -23.6535 C   0  0  0  0  0  0  0  0  0  0  0  0
   -7.1790   -3.9294  -22.7601 O   0  0  0  0  0  0  0  0  0  0  0  0
   -8.4657   -2.0236  -23.1914 C   0  0  0  0  0  0  0  0  0  0  0  0
   -9.8819   -2.5066  -22.8296 C   0  0  0  0  0  0  0  0  0  0  0  0
  -10.1293   -3.8532  -22.4860 C   0  0  0  0  0  0  0  0  0  0  0  0
  -11.3563   -4.3767  -22.3284 N   0  0  0  0  0  0  0  0  0  0  0  0
  -12.4025   -3.5552  -22.4789 C   0  0  0  0  0  0  0  0  0  0  0  0
  -12.2713   -2.1885  -22.7343 C   0  0  0  0  0  0  0  0  0  0  0  0
  -13.3953   -1.3516  -22.8213 C   0  0  0  0  0  0  0  0  0  0  0  0
  -13.2287    0.0140  -23.0409 C   0  0  0  0  0  0  0  0  0  0  0  0
  -11.9461    0.5492  -23.1805 C   0  0  0  0  0  0  0  0  0  0  0  0
  -10.8263   -0.2838  -23.1002 C   0  0  0  0  0  0  0  0  0  0  0  0
  -10.9859   -1.6494  -22.8924 C   0  0  0  0  0  0  0  0  0  0  0  0
   -7.5788   -3.0353  -26.1446 C   0  0  0  0  0  0  0  0  0  0  0  0
   -8.6682   -3.3696  -27.1747 C   0  0  0  0  0  0  0  0  0  0  0  0
   -8.1467   -6.5799  -30.1989 H   0  0  0  0  0  0  0  0  0  0  0  0
   -7.7556   -8.2642  -29.8187 H   0  0  0  0  0  0  0  0  0  0  0  0
   -9.1627   -7.5057  -29.0615 H   0  0  0  0  0  0  0  0  0  0  0  0
   -7.5186   -7.4423  -27.3361 H   0  0  0  0  0  0  0  0  0  0  0  0
   -5.6083   -8.2080  -28.6815 H   0  0  0  0  0  0  0  0  0  0  0  0
   -5.5174   -6.6419  -29.5167 H   0  0  0  0  0  0  0  0  0  0  0  0
   -5.1371   -6.7503  -27.7851 H   0  0  0  0  0  0  0  0  0  0  0  0
   -6.6464   -5.1124  -27.1736 H   0  0  0  0  0  0  0  0  0  0  0  0
   -7.1394   -4.8061  -28.8381 H   0  0  0  0  0  0  0  0  0  0  0  0
   -9.5195   -4.9985  -29.4644 H   0  0  0  0  0  0  0  0  0  0  0  0
  -10.7435   -4.5551  -28.2650 H   0  0  0  0  0  0  0  0  0  0  0  0
  -10.1892   -6.2293  -28.3794 H   0  0  0  0  0  0  0  0  0  0  0  0
   -9.1864   -6.6316  -26.1981 H   0  0  0  0  0  0  0  0  0  0  0  0
  -10.1027   -5.1873  -25.7537 H   0  0  0  0  0  0  0  0  0  0  0  0
   -8.4463   -5.5979  -24.0462 H   0  0  0  0  0  0  0  0  0  0  0  0
   -7.1433   -5.7427  -25.2279 H   0  0  0  0  0  0  0  0  0  0  0  0
   -8.4989   -1.2786  -23.9931 H   0  0  0  0  0  0  0  0  0  0  0  0
   -7.9826   -1.5529  -22.3264 H   0  0  0  0  0  0  0  0  0  0  0  0
   -9.2701   -4.5101  -22.3922 H   0  0  0  0  0  0  0  0  0  0  0  0
  -13.3963   -3.9712  -22.3693 H   0  0  0  0  0  0  0  0  0  0  0  0
  -14.3920   -1.7568  -22.6898 H   0  0  0  0  0  0  0  0  0  0  0  0
  -14.0979    0.6658  -23.0740 H   0  0  0  0  0  0  0  0  0  0  0  0
  -11.8050    1.6063  -23.3535 H   0  0  0  0  0  0  0  0  0  0  0  0
   -9.8233    0.1252  -23.1669 H   0  0  0  0  0  0  0  0  0  0  0  0
   -7.5450   -1.9534  -25.9816 H   0  0  0  0  0  0  0  0  0  0  0  0
   -6.5981   -3.3256  -26.5376 H   0  0  0  0  0  0  0  0  0  0  0  0
   -8.4445   -2.8650  -28.1172 H   0  0  0  0  0  0  0  0  0  0  0  0
   -9.6268   -2.9948  -26.8024 H   0  0  0  0  0  0  0  0  0  0  0  0
  1  2  1  0
  2  3  1  0
  2  4  1  0
  4  5  1  0
  5  6  1  0
  5  7  1  0
  7  8  1  0
  8  9  1  0
  9 10  1  0
 10 11  2  0
 10 12  1  0
 12 13  1  0
 13 14  2  0
 14 15  1  0
 15 16  2  0
 16 17  1  0
 17 18  2  0
 18 19  1  0
 19 20  2  0
 20 21  1  0
 21 22  2  0
  9 23  1  0
 23 24  1  0
 24  5  1  0
 22 13  1  0
 22 17  1  0
  1 25  1  0
  1 26  1  0
  1 27  1  0
  2 28  1  0
  3 29  1  0
  3 30  1  0
  3 31  1  0
  4 32  1  0
  4 33  1  0
  6 34  1  0
  6 35  1  0
  6 36  1  0
  7 37  1  0
  7 38  1  0
  8 39  1  0
  8 40  1  0
 12 41  1  0
 12 42  1  0
 14 43  1  0
 16 44  1  0
 18 45  1  0
 19 46  1  0
 20 47  1  0
 21 48  1  0
 23 49  1  0
 23 50  1  0
 24 51  1  0
 24 52  1  0
M  END
