
     RDKit          3D

 52 54  0  0  0  0  0  0  0  0999 V2000
    8.6813   -6.1831   29.4037 C   0  0  0  0  0  0  0  0  0  0  0  0
    7.7745   -5.7750   28.2352 C   0  0  0  0  0  0  0  0  0  0  0  0
    6.3191   -6.0851   28.5950 C   0  0  0  0  0  0  0  0  0  0  0  0
    7.8547   -4.2751   27.9119 C   0  0  0  0  0  0  0  0  0  0  0  0
    9.2075   -3.7558   27.3821 C   0  0  0  0  0  0  0  0  0  0  0  0
   10.3304   -3.9973   28.4028 C   0  0  0  0  0  0  0  0  0  0  0  0
    9.5774   -4.4213   26.0477 C   0  0  0  0  0  0  0  0  0  0  0  0
    8.5154   -4.1503   24.9756 C   0  0  0  0  0  0  0  0  0  0  0  0
    8.2172   -2.7177   24.8587 N   0  0  0  0  0  0  0  0  0  0  0  0
    7.9754   -2.1819   23.5959 C   0  0  0  0  0  0  0  0  0  0  0  0
    7.5586   -2.9273   22.7173 O   0  0  0  0  0  0  0  0  0  0  0  0
    8.7808   -0.9711   23.1086 C   0  0  0  0  0  0  0  0  0  0  0  0
   10.2105   -1.4102   22.7442 C   0  0  0  0  0  0  0  0  0  0  0  0
   10.5025   -2.7528   22.4204 C   0  0  0  0  0  0  0  0  0  0  0  0
   11.7460   -3.2356   22.2622 N   0  0  0  0  0  0  0  0  0  0  0  0
   12.7638   -2.3758   22.3919 C   0  0  0  0  0  0  0  0  0  0  0  0
   12.5866   -1.0106   22.6264 C   0  0  0  0  0  0  0  0  0  0  0  0
   13.6812   -0.1337   22.6918 C   0  0  0  0  0  0  0  0  0  0  0  0
   13.4684    1.2287   22.8907 C   0  0  0  0  0  0  0  0  0  0  0  0
   12.1689    1.7210   23.0311 C   0  0  0  0  0  0  0  0  0  0  0  0
   11.0784    0.8483   22.9724 C   0  0  0  0  0  0  0  0  0  0  0  0
   11.2842   -0.5141   22.7852 C   0  0  0  0  0  0  0  0  0  0  0  0
    7.9498   -1.9650   26.0840 C   0  0  0  0  0  0  0  0  0  0  0  0
    9.0571   -2.2444   27.1113 C   0  0  0  0  0  0  0  0  0  0  0  0
    8.6687   -5.4214   30.1902 H   0  0  0  0  0  0  0  0  0  0  0  0
    8.3342   -7.1243   29.8398 H   0  0  0  0  0  0  0  0  0  0  0  0
    9.7087   -6.3296   29.0603 H   0  0  0  0  0  0  0  0  0  0  0  0
    8.0518   -6.3515   27.3462 H   0  0  0  0  0  0  0  0  0  0  0  0
    6.1786   -7.1615   28.7176 H   0  0  0  0  0  0  0  0  0  0  0  0
    6.0386   -5.5861   29.5283 H   0  0  0  0  0  0  0  0  0  0  0  0
    5.6507   -5.7358   27.8015 H   0  0  0  0  0  0  0  0  0  0  0  0
    7.0976   -4.0564   27.1529 H   0  0  0  0  0  0  0  0  0  0  0  0
    7.5908   -3.7061   28.8086 H   0  0  0  0  0  0  0  0  0  0  0  0
    9.9803   -3.8053   29.4205 H   0  0  0  0  0  0  0  0  0  0  0  0
   11.1800   -3.3390   28.2052 H   0  0  0  0  0  0  0  0  0  0  0  0
   10.6853   -5.0294   28.3504 H   0  0  0  0  0  0  0  0  0  0  0  0
    9.6825   -5.5018   26.1832 H   0  0  0  0  0  0  0  0  0  0  0  0
   10.5447   -4.0338   25.7091 H   0  0  0  0  0  0  0  0  0  0  0  0
    8.8922   -4.5295   24.0205 H   0  0  0  0  0  0  0  0  0  0  0  0
    7.6031   -4.7005   25.2139 H   0  0  0  0  0  0  0  0  0  0  0  0
    8.7933   -0.2125   23.8981 H   0  0  0  0  0  0  0  0  0  0  0  0
    8.2756   -0.5316   22.2398 H   0  0  0  0  0  0  0  0  0  0  0  0
    9.6662   -3.4406   22.3434 H   0  0  0  0  0  0  0  0  0  0  0  0
   13.7708   -2.7587   22.2817 H   0  0  0  0  0  0  0  0  0  0  0  0
   14.6906   -0.5060   22.5594 H   0  0  0  0  0  0  0  0  0  0  0  0
   14.3145    1.9108   22.9070 H   0  0  0  0  0  0  0  0  0  0  0  0
   11.9921    2.7752   23.1883 H   0  0  0  0  0  0  0  0  0  0  0  0
   10.0622    1.2231   23.0399 H   0  0  0  0  0  0  0  0  0  0  0  0
    7.8770   -0.8878   25.9040 H   0  0  0  0  0  0  0  0  0  0  0  0
    6.9825   -2.2829   26.4888 H   0  0  0  0  0  0  0  0  0  0  0  0
    8.8223   -1.7327   28.0473 H   0  0  0  0  0  0  0  0  0  0  0  0
    9.9995   -1.8425   26.7261 H   0  0  0  0  0  0  0  0  0  0  0  0
  1  2  1  0
  2  3  1  0
  2  4  1  0
  4  5  1  0
  5  6  1  0
  5  7  1  0
  7  8  1  0
  8  9  1  0
  9 10  1  0
 10 11  2  0
 10 12  1  0
 12 13  1  0
 13 14  2  0
 14 15  1  0
 15 16  2  0
 16 17  1  0
 17 18  2  0
 18 19  1  0
 19 20  2  0
 20 21  1  0
 21 22  2  0
  9 23  1  0
 23 24  1  0
 24  5  1  0
 22 13  1  0
 22 17  1  0
  1 25  1  0
  1 26  1  0
  1 27  1  0
  2 28  1  0
  3 29  1  0
  3 30  1  0
  3 31  1  0
  4 32  1  0
  4 33  1  0
  6 34  1  0
  6 35  1  0
  6 36  1  0
  7 37  1  0
  7 38  1  0
  8 39  1  0
  8 40  1  0
 12 41  1  0
 12 42  1  0
 14 43  1  0
 16 44  1  0
 18 45  1  0
 19 46  1  0
 20 47  1  0
 21 48  1  0
 23 49  1  0
 23 50  1  0
 24 51  1  0
 24 52  1  0
M  END
$$$$
