LIG(A-306)
     RDKit          3D

 37 41  0  0  1  0  0  0  0  0999 V2000
    9.2940    1.2490   20.9956 O   0  0  0  0  0  0  0  0  0  0  0  0
    8.8446    0.2434   21.5294 C   0  0  0  0  0  0  0  0  0  0  0  0
    7.6679   -0.2993   21.1282 N   0  0  0  0  0  0  0  0  0  0  0  0
    6.8476    0.1375   20.0624 C   0  0  0  0  0  0  0  0  0  0  0  0
    5.6877    0.9226   20.3584 C   0  0  0  0  0  0  0  0  0  0  0  0
    5.2731    1.2553   21.6743 C   0  0  0  0  0  0  0  0  0  0  0  0
    4.1612    2.0209   21.8894 C   0  0  0  0  0  0  0  0  0  0  0  0
    3.4117    2.4979   20.8223 C   0  0  0  0  0  0  0  0  0  0  0  0
    3.7702    2.2073   19.5371 C   0  0  0  0  0  0  0  0  0  0  0  0
    4.9132    1.4143   19.2682 C   0  0  0  0  0  0  0  0  0  0  0  0
    5.3398    1.0927   17.9602 C   0  0  0  0  0  0  0  0  0  0  0  0
    6.4105    0.3645   17.6839 N   0  0  0  0  0  0  0  0  0  0  0  0
    7.1279   -0.0967   18.7179 C   0  0  0  0  0  0  0  0  0  0  0  0
    9.6016   -0.4419   22.6988 C   0  0  1  0  0  0  0  0  0  0  0  0
   11.0897   -0.0791   22.7061 C   0  0  0  0  0  0  0  0  0  0  0  0
   11.9955   -0.8477   21.9791 C   0  0  0  0  0  0  0  0  0  0  0  0
   13.3074   -0.4331   21.8681 C   0  0  0  0  0  0  0  0  0  0  0  0
   14.3643   -1.2747   20.7675 Cl  0  0  0  0  0  0  0  0  0  0  0  0
   13.7717    0.6954   22.5105 C   0  0  0  0  0  0  0  0  0  0  0  0
   12.8989    1.4434   23.2777 C   0  0  0  0  0  0  0  0  0  0  0  0
   11.5729    1.0556   23.3755 C   0  0  0  0  0  0  0  0  0  0  0  0
   10.7840    1.8748   24.1502 O   0  0  0  0  0  0  0  0  0  0  0  0
    9.3617    1.6004   24.1833 C   0  0  0  0  0  0  0  0  0  0  0  0
    9.0204    0.1354   24.0091 C   0  0  0  0  0  0  0  0  0  0  0  0
    9.4755   -1.9877   22.6422 C   0  0  0  0  0  0  0  0  0  0  0  0
    8.2931   -2.5597   23.3912 C   0  0  0  0  0  0  0  0  0  0  0  0
    7.1647   -2.4566   22.9317 O   0  0  0  0  0  0  0  0  0  0  0  0
    8.5340   -3.2224   24.5436 N   0  0  0  0  0  0  0  0  0  0  0  0
    8.0799   -2.7059   25.8443 C   0  0  0  0  0  0  0  0  0  0  0  0
    9.1646   -2.8910   26.9053 C   0  0  0  0  0  0  0  0  0  0  0  0
    9.1054   -4.5788   24.5656 C   0  0  0  0  0  0  0  0  0  0  0  0
   10.1410   -4.7197   25.6913 C   0  0  0  0  0  0  0  0  0  0  0  0
    9.5732   -4.3025   26.9867 N   0  0  0  0  0  0  0  0  0  0  0  0
    8.4635   -5.1674   27.4237 C   0  0  0  0  0  0  0  0  0  0  0  0
    8.4817   -5.5245   28.9001 C   0  0  0  0  0  0  0  0  0  0  0  0
    7.1137   -5.4756   29.5590 C   0  0  0  0  0  0  0  0  0  0  0  0
    6.8435   -4.1965   30.1245 O   0  0  0  0  0  0  0  0  0  0  0  0
  1  2  2  0
  2  3  1  0
 14  2  1  0
  3  4  1  0
  4  5  1  0
  4 13  2  0
  5  6  2  0
  5 10  1  0
  6  7  1  0
  7  8  2  0
  8  9  1  0
  9 10  2  0
 10 11  1  0
 11 12  2  0
 12 13  1  0
 14 15  1  0
 14 24  1  0
 14 25  1  1
 15 16  2  0
 15 21  1  0
 16 17  1  0
 17 18  1  0
 17 19  2  0
 19 20  1  0
 20 21  2  0
 21 22  1  0
 22 23  1  0
 23 24  1  0
 25 26  1  0
 26 27  2  0
 26 28  1  0
 28 29  1  0
 28 31  1  0
 29 30  1  0
 30 33  1  0
 31 32  1  0
 32 33  1  0
 33 34  1  0
 34 35  1  0
 35 36  1  0
 36 37  1  0
M  CHG  1  33   1
M  END
$$$$
