mobile
  PyMOL3.1          3D                             0

 54 58  0  0  0  0  0  0  0  0999 V2000
   -8.5274    5.7575  -22.9941 N   0  0  0  0  0  0  0  0  0  0  0  0
   -7.8276    4.8595  -22.9821 C   0  0  0  0  0  0  0  0  0  0  0  0
   -6.8882    3.7314  -22.9264 C   0  0  0  0  0  0  0  0  0  0  0  0
   -5.5276    3.9387  -23.5541 C   0  0  0  0  0  0  0  0  0  0  0  0
   -5.6553    3.9610  -22.0792 C   0  0  0  0  0  0  0  0  0  0  0  0
   -7.5339    2.3506  -22.9412 C   0  0  0  0  0  0  0  0  0  0  0  0
   -7.7094    1.5815  -24.5403 S   0  0  0  0  0  0  0  0  0  0  0  0
   -6.4531    1.0182  -24.9204 O   0  0  0  0  0  0  0  0  0  0  0  0
   -8.3416    2.5225  -25.4091 O   0  0  0  0  0  0  0  0  0  0  0  0
   -8.7442    0.3426  -24.3368 N   0  0  0  0  0  0  0  0  0  0  0  0
  -10.1471    0.5427  -24.7146 C   0  0  0  0  0  0  0  0  0  0  0  0
   -8.3287   -1.0704  -24.2614 C   0  0  0  0  0  0  0  0  0  0  0  0
   -9.0424   -1.6695  -23.0464 C   0  0  0  0  0  0  0  0  0  0  0  0
  -10.5421   -1.4103  -23.1206 C   0  0  0  0  0  0  0  0  0  0  0  0
  -11.0367   -0.3066  -23.8397 C   0  0  0  0  0  0  0  0  0  0  0  0
  -12.3941    0.0003  -23.7713 C   0  0  0  0  0  0  0  0  0  0  0  0
  -13.2649   -0.7715  -23.0283 C   0  0  0  0  0  0  0  0  0  0  0  0
  -11.4358   -2.2072  -22.4007 C   0  0  0  0  0  0  0  0  0  0  0  0
  -12.7786   -1.8713  -22.3615 C   0  0  0  0  0  0  0  0  0  0  0  0
  -13.8721   -2.8345  -21.4062 Cl  0  0  0  0  0  0  0  0  0  0  0  0
   -8.4714   -0.9833  -21.8035 C   0  0  0  0  0  0  0  0  0  0  0  0
   -9.0267   -0.0231  -21.2819 O   0  0  0  0  0  0  0  0  0  0  0  0
   -7.2906   -1.4842  -21.3526 N   0  0  0  0  0  0  0  0  0  0  0  0
   -6.5253   -1.0155  -20.2560 C   0  0  0  0  0  0  0  0  0  0  0  0
   -5.3738   -0.1980  -20.5028 C   0  0  0  0  0  0  0  0  0  0  0  0
   -4.8378    0.0423  -21.7950 C   0  0  0  0  0  0  0  0  0  0  0  0
   -3.7295    0.8248  -21.9630 C   0  0  0  0  0  0  0  0  0  0  0  0
   -3.0967    1.4034  -20.8694 C   0  0  0  0  0  0  0  0  0  0  0  0
   -3.5754    1.2055  -19.6039 C   0  0  0  0  0  0  0  0  0  0  0  0
   -4.7219    0.4006  -19.3862 C   0  0  0  0  0  0  0  0  0  0  0  0
   -5.2461    0.1387  -18.0954 C   0  0  0  0  0  0  0  0  0  0  0  0
   -6.2968   -0.6329  -17.8616 N   0  0  0  0  0  0  0  0  0  0  0  0
   -6.9069   -1.1873  -18.9213 C   0  0  0  0  0  0  0  0  0  0  0  0
   -5.0174    3.0986  -24.0484 H   0  0  0  0  0  0  0  0  0  0  0  0
   -5.3112    4.8699  -24.0995 H   0  0  0  0  0  0  0  0  0  0  0  0
   -5.2404    3.1360  -21.4810 H   0  0  0  0  0  0  0  0  0  0  0  0
   -5.5342    4.9083  -21.5322 H   0  0  0  0  0  0  0  0  0  0  0  0
   -6.9192    1.6862  -22.3152 H   0  0  0  0  0  0  0  0  0  0  0  0
   -8.5375    2.4443  -22.5014 H   0  0  0  0  0  0  0  0  0  0  0  0
  -10.4129    1.6023  -24.5869 H   0  0  0  0  0  0  0  0  0  0  0  0
  -10.2872    0.2549  -25.7676 H   0  0  0  0  0  0  0  0  0  0  0  0
   -8.6257   -1.6028  -25.1771 H   0  0  0  0  0  0  0  0  0  0  0  0
   -7.2380   -1.1391  -24.1340 H   0  0  0  0  0  0  0  0  0  0  0  0
   -8.8508   -2.7515  -22.9970 H   0  0  0  0  0  0  0  0  0  0  0  0
  -12.7709    0.8575  -24.3104 H   0  0  0  0  0  0  0  0  0  0  0  0
  -14.3134   -0.5143  -22.9710 H   0  0  0  0  0  0  0  0  0  0  0  0
  -11.0802   -3.0823  -21.8757 H   0  0  0  0  0  0  0  0  0  0  0  0
   -6.9211   -2.2695  -21.8501 H   0  0  0  0  0  0  0  0  0  0  0  0
   -5.3126   -0.3986  -22.6582 H   0  0  0  0  0  0  0  0  0  0  0  0
   -3.3404    0.9944  -22.9555 H   0  0  0  0  0  0  0  0  0  0  0  0
   -2.2185    2.0151  -21.0195 H   0  0  0  0  0  0  0  0  0  0  0  0
   -3.0769    1.6658  -18.7647 H   0  0  0  0  0  0  0  0  0  0  0  0
   -4.7566    0.5968  -17.2483 H   0  0  0  0  0  0  0  0  0  0  0  0
   -7.7622   -1.8176  -18.7275 H   0  0  0  0  0  0  0  0  0  0  0  0
  1  2  3  0  0  0  0
  2  3  1  0  0  0  0
  3  4  1  0  0  0  0
  3  5  1  0  0  0  0
  3  6  1  0  0  0  0
  4  5  1  0  0  0  0
  4 34  1  0  0  0  0
  4 35  1  0  0  0  0
  5 36  1  0  0  0  0
  5 37  1  0  0  0  0
  6  7  1  0  0  0  0
  6 38  1  0  0  0  0
  6 39  1  0  0  0  0
  7  8  2  0  0  0  0
  7  9  2  0  0  0  0
  7 10  1  0  0  0  0
 10 11  1  0  0  0  0
 10 12  1  0  0  0  0
 11 15  1  0  0  0  0
 11 40  1  0  0  0  0
 11 41  1  0  0  0  0
 12 13  1  0  0  0  0
 12 42  1  0  0  0  0
 12 43  1  0  0  0  0
 13 14  1  0  0  0  0
 13 21  1  0  0  0  0
 13 44  1  0  0  0  0
 14 15  4  0  0  0  0
 14 18  4  0  0  0  0
 15 16  4  0  0  0  0
 16 17  4  0  0  0  0
 16 45  1  0  0  0  0
 17 19  4  0  0  0  0
 17 46  1  0  0  0  0
 18 19  4  0  0  0  0
 18 47  1  0  0  0  0
 19 20  1  0  0  0  0
 21 22  2  0  0  0  0
 21 23  1  0  0  0  0
 23 24  1  0  0  0  0
 23 48  1  0  0  0  0
 24 25  4  0  0  0  0
 24 33  4  0  0  0  0
 25 26  4  0  0  0  0
 25 30  4  0  0  0  0
 26 27  4  0  0  0  0
 26 49  1  0  0  0  0
 27 28  4  0  0  0  0
 27 50  1  0  0  0  0
 28 29  4  0  0  0  0
 28 51  1  0  0  0  0
 29 30  4  0  0  0  0
 29 52  1  0  0  0  0
 30 31  4  0  0  0  0
 31 32  4  0  0  0  0
 31 53  1  0  0  0  0
 32 33  4  0  0  0  0
 33 54  1  0  0  0  0
M  END
$$$$
