
     RDKit          3D

 52 54  0  0  0  0  0  0  0  0999 V2000
   -6.7509   -7.8658  -29.1898 C   0  0  0  0  0  0  0  0  0  0  0  0
   -8.0898   -7.1869  -28.8702 C   0  0  0  0  0  0  0  0  0  0  0  0
   -8.9415   -8.1255  -28.0101 C   0  0  0  0  0  0  0  0  0  0  0  0
   -7.7878   -5.8151  -28.2218 C   0  0  0  0  0  0  0  0  0  0  0  0
   -8.9856   -4.8227  -27.9224 C   0  0  0  0  0  0  0  0  0  0  0  0
  -10.1673   -5.0139  -28.8737 C   0  0  0  0  0  0  0  0  0  0  0  0
   -9.4686   -4.7024  -26.3137 C   0  0  0  0  0  0  0  0  0  0  0  0
   -8.1140   -4.0447  -25.6779 C   0  0  0  0  0  0  0  0  0  0  0  0
   -8.4317   -3.1510  -24.2173 N   0  0  0  0  0  0  0  0  0  0  0  0
   -7.6257   -3.2675  -23.0419 C   0  0  0  0  0  0  0  0  0  0  0  0
   -6.5388   -3.8246  -22.8373 O   0  0  0  0  0  0  0  0  0  0  0  0
   -8.2954   -2.2257  -22.0795 C   0  0  0  0  0  0  0  0  0  0  0  0
   -8.4256   -2.6193  -21.7159 C   0  0  0  0  0  0  0  0  0  0  0  0
   -8.3977   -2.2739  -22.0169 C   0  0  0  0  0  0  0  0  0  0  0  0
  -10.6060   -3.6784  -21.6642 N   0  0  0  0  0  0  0  0  0  0  0  0
  -11.7945   -3.6585  -22.0173 C   0  0  0  0  0  0  0  0  0  0  0  0
  -12.4155   -2.6089  -22.8941 C   0  0  0  0  0  0  0  0  0  0  0  0
  -12.9839   -0.8810  -23.3278 C   0  0  0  0  0  0  0  0  0  0  0  0
  -13.9318    0.3835  -23.0887 C   0  0  0  0  0  0  0  0  0  0  0  0
  -12.4770    0.6467  -23.1006 C   0  0  0  0  0  0  0  0  0  0  0  0
  -12.9659   -0.8859  -23.3306 C   0  0  0  0  0  0  0  0  0  0  0  0
  -10.2168   -1.0801  -23.0978 C   0  0  0  0  0  0  0  0  0  0  0  0
   -8.2320   -3.8669  -25.7453 C   0  0  0  0  0  0  0  0  0  0  0  0
   -9.4783   -4.4193  -26.5015 C   0  0  0  0  0  0  0  0  0  0  0  0
   -6.1261   -7.2488  -29.8466 H   0  0  0  0  0  0  0  0  0  0  0  0
   -6.8956   -8.8374  -29.6777 H   0  0  0  0  0  0  0  0  0  0  0  0
   -6.1847   -8.0452  -28.2663 H   0  0  0  0  0  0  0  0  0  0  0  0
   -8.6115   -7.0233  -29.8251 H   0  0  0  0  0  0  0  0  0  0  0  0
   -8.9377   -9.1394  -28.4290 H   0  0  0  0  0  0  0  0  0  0  0  0
   -8.5308   -8.1949  -26.9946 H   0  0  0  0  0  0  0  0  0  0  0  0
   -9.9901   -7.8189  -27.9403 H   0  0  0  0  0  0  0  0  0  0  0  0
   -7.1298   -5.2933  -28.9320 H   0  0  0  0  0  0  0  0  0  0  0  0
   -7.1580   -6.0324  -27.3446 H   0  0  0  0  0  0  0  0  0  0  0  0
  -10.9014   -4.1947  -28.8608 H   0  0  0  0  0  0  0  0  0  0  0  0
  -10.7044   -5.9662  -28.8008 H   0  0  0  0  0  0  0  0  0  0  0  0
   -9.7872   -4.9734  -29.9026 H   0  0  0  0  0  0  0  0  0  0  0  0
  -10.6528   -4.5070  -26.4429 H   0  0  0  0  0  0  0  0  0  0  0  0
   -9.1786   -5.9501  -25.7302 H   0  0  0  0  0  0  0  0  0  0  0  0
   -7.1093   -4.6300  -25.3035 H   0  0  0  0  0  0  0  0  0  0  0  0
   -8.3884   -5.4562  -25.0136 H   0  0  0  0  0  0  0  0  0  0  0  0
   -7.5341   -2.0628  -21.1309 H   0  0  0  0  0  0  0  0  0  0  0  0
   -8.5197   -1.2881  -22.8705 H   0  0  0  0  0  0  0  0  0  0  0  0
   -8.8693   -3.5513  -21.2108 H   0  0  0  0  0  0  0  0  0  0  0  0
  -12.5683   -4.4079  -21.7496 H   0  0  0  0  0  0  0  0  0  0  0  0
  -13.7915   -1.7655  -22.8728 H   0  0  0  0  0  0  0  0  0  0  0  0
  -14.6208    0.7800  -23.8467 H   0  0  0  0  0  0  0  0  0  0  0  0
  -11.6773    1.0929  -23.7338 H   0  0  0  0  0  0  0  0  0  0  0  0
  -10.3405   -1.5203  -24.0620 H   0  0  0  0  0  0  0  0  0  0  0  0
   -7.8822   -3.2386  -26.6826 H   0  0  0  0  0  0  0  0  0  0  0  0
   -8.4201   -2.2046  -24.6188 H   0  0  0  0  0  0  0  0  0  0  0  0
   -8.5897   -3.8553  -28.2915 H   0  0  0  0  0  0  0  0  0  0  0  0
   -9.5069   -3.3293  -26.6736 H   0  0  0  0  0  0  0  0  0  0  0  0
  1  2  1  0
  2  3  1  0
  2  4  1  0
  4  5  1  0
  5  6  1  0
  5  7  1  0
  7  8  1  0
  8  9  1  0
  9 10  1  0
 10 11  2  0
 10 12  1  0
 12 13  1  0
 13 14  2  0
 14 15  1  0
 15 16  2  0
 16 17  1  0
 17 18  2  0
 18 19  1  0
 19 20  2  0
 20 21  1  0
 21 22  2  0
  9 23  1  0
 23 24  1  0
 24  5  1  0
 22 13  1  0
 22 17  1  0
  1 25  1  0
  1 26  1  0
  1 27  1  0
  2 28  1  0
  3 29  1  0
  3 30  1  0
  3 31  1  0
  4 32  1  0
  4 33  1  0
  6 34  1  0
  6 35  1  0
  6 36  1  0
  7 37  1  0
  7 38  1  0
  8 39  1  0
  8 40  1  0
 12 41  1  0
 12 42  1  0
 14 43  1  0
 16 44  1  0
 18 45  1  0
 19 46  1  0
 20 47  1  0
 21 48  1  0
 23 49  1  0
 23 50  1  0
 24 51  1  0
 24 52  1  0
M  END
