
     RDKit          3D

 52 54  0  0  0  0  0  0  0  0999 V2000
    7.3119   -6.7714   29.2120 C   0  0  0  0  0  0  0  0  0  0  0  0
    8.6241   -6.0515   28.8718 C   0  0  0  0  0  0  0  0  0  0  0  0
    9.5023   -6.9737   28.0206 C   0  0  0  0  0  0  0  0  0  0  0  0
    8.2699   -4.7018   28.2038 C   0  0  0  0  0  0  0  0  0  0  0  0
    9.4302   -3.6732   27.8798 C   0  0  0  0  0  0  0  0  0  0  0  0
   10.6243   -3.8076   28.8254 C   0  0  0  0  0  0  0  0  0  0  0  0
    9.8978   -3.5623   26.2659 C   0  0  0  0  0  0  0  0  0  0  0  0
    8.5168   -2.9626   25.6296 C   0  0  0  0  0  0  0  0  0  0  0  0
    8.7931   -2.0822   24.1526 N   0  0  0  0  0  0  0  0  0  0  0  0
    7.9838   -2.2458   22.9852 C   0  0  0  0  0  0  0  0  0  0  0  0
    6.9157   -2.8437   22.7975 O   0  0  0  0  0  0  0  0  0  0  0  0
    8.6101   -1.1970   22.0014 C   0  0  0  0  0  0  0  0  0  0  0  0
    8.7515   -1.5917   21.6432 C   0  0  0  0  0  0  0  0  0  0  0  0
    8.7136   -1.2426   21.9388 C   0  0  0  0  0  0  0  0  0  0  0  0
   10.9673   -2.5748   21.5924 N   0  0  0  0  0  0  0  0  0  0  0  0
   12.1567   -2.5077   21.9365 C   0  0  0  0  0  0  0  0  0  0  0  0
   12.7465   -1.4230   22.7918 C   0  0  0  0  0  0  0  0  0  0  0  0
   13.2570    0.3304   23.1937 C   0  0  0  0  0  0  0  0  0  0  0  0
   14.1585    1.6232   22.9275 C   0  0  0  0  0  0  0  0  0  0  0  0
   12.6955    1.8356   22.9458 C   0  0  0  0  0  0  0  0  0  0  0  0
   13.2392    0.3250   23.1967 C   0  0  0  0  0  0  0  0  0  0  0  0
   10.4971    0.0313   22.9871 C   0  0  0  0  0  0  0  0  0  0  0  0
    8.6289   -2.7797   25.6933 C   0  0  0  0  0  0  0  0  0  0  0  0
    9.8989   -3.2760   26.4491 C   0  0  0  0  0  0  0  0  0  0  0  0
    6.6704   -6.1660   29.8634 H   0  0  0  0  0  0  0  0  0  0  0  0
    7.4938   -7.7293   29.7143 H   0  0  0  0  0  0  0  0  0  0  0  0
    6.7461   -6.9854   28.2956 H   0  0  0  0  0  0  0  0  0  0  0  0
    9.1462   -5.8544   29.8201 H   0  0  0  0  0  0  0  0  0  0  0  0
    9.5368   -7.9802   28.4556 H   0  0  0  0  0  0  0  0  0  0  0  0
    9.0874   -7.0738   27.0094 H   0  0  0  0  0  0  0  0  0  0  0  0
   10.5390   -6.6319   27.9382 H   0  0  0  0  0  0  0  0  0  0  0  0
    7.5989   -4.1918   28.9104 H   0  0  0  0  0  0  0  0  0  0  0  0
    7.6422   -4.9551   27.3348 H   0  0  0  0  0  0  0  0  0  0  0  0
   11.3292   -2.9637   28.7940 H   0  0  0  0  0  0  0  0  0  0  0  0
   11.1939   -4.7417   28.7638 H   0  0  0  0  0  0  0  0  0  0  0  0
   10.2500   -3.7637   29.8562 H   0  0  0  0  0  0  0  0  0  0  0  0
   11.0753   -3.3236   26.3833 H   0  0  0  0  0  0  0  0  0  0  0  0
    9.6477   -4.8286   25.7045 H   0  0  0  0  0  0  0  0  0  0  0  0
    7.5307   -3.5886   25.2720 H   0  0  0  0  0  0  0  0  0  0  0  0
    8.8359   -4.3743   24.9859 H   0  0  0  0  0  0  0  0  0  0  0  0
    7.8372   -1.0761   21.0559 H   0  0  0  0  0  0  0  0  0  0  0  0
    8.8068   -0.2394   22.7756 H   0  0  0  0  0  0  0  0  0  0  0  0
    9.2241   -2.5157   21.1498 H   0  0  0  0  0  0  0  0  0  0  0  0
   12.9544   -3.2340   21.6751 H   0  0  0  0  0  0  0  0  0  0  0  0
   14.0920   -0.5326   22.7470 H   0  0  0  0  0  0  0  0  0  0  0  0
   14.8383    2.0557   23.6740 H   0  0  0  0  0  0  0  0  0  0  0  0
   11.8850    2.2639   23.5776 H   0  0  0  0  0  0  0  0  0  0  0  0
   10.6426   -0.3887   23.9573 H   0  0  0  0  0  0  0  0  0  0  0  0
    8.2637   -2.1489   26.6230 H   0  0  0  0  0  0  0  0  0  0  0  0
    8.7512   -1.1304   24.5390 H   0  0  0  0  0  0  0  0  0  0  0  0
    9.0032   -2.7144   28.2363 H   0  0  0  0  0  0  0  0  0  0  0  0
    9.8905   -2.1830   26.6035 H   0  0  0  0  0  0  0  0  0  0  0  0
  1  2  1  0
  2  3  1  0
  2  4  1  0
  4  5  1  0
  5  6  1  0
  5  7  1  0
  7  8  1  0
  8  9  1  0
  9 10  1  0
 10 11  2  0
 10 12  1  0
 12 13  1  0
 13 14  2  0
 14 15  1  0
 15 16  2  0
 16 17  1  0
 17 18  2  0
 18 19  1  0
 19 20  2  0
 20 21  1  0
 21 22  2  0
  9 23  1  0
 23 24  1  0
 24  5  1  0
 22 13  1  0
 22 17  1  0
  1 25  1  0
  1 26  1  0
  1 27  1  0
  2 28  1  0
  3 29  1  0
  3 30  1  0
  3 31  1  0
  4 32  1  0
  4 33  1  0
  6 34  1  0
  6 35  1  0
  6 36  1  0
  7 37  1  0
  7 38  1  0
  8 39  1  0
  8 40  1  0
 12 41  1  0
 12 42  1  0
 14 43  1  0
 16 44  1  0
 18 45  1  0
 19 46  1  0
 20 47  1  0
 21 48  1  0
 23 49  1  0
 23 50  1  0
 24 51  1  0
 24 52  1  0
M  END
$$$$
