
     RDKit          3D

 40 44  0  0  0  0  0  0  0  0999 V2000
   -8.0152    1.5620  -24.6844 C   0  0  0  0  0  0  0  0  0  0  0  0
   -7.1041    0.3795  -24.9101 C   0  0  0  0  0  0  0  0  0  0  0  0
   -5.9019    0.5035  -25.0947 O   0  0  0  0  0  0  0  0  0  0  0  0
   -7.6880   -0.8514  -24.9079 N   0  0  0  0  0  0  0  0  0  0  0  0
   -6.8323   -2.0596  -24.8769 C   0  0  0  0  0  0  0  0  0  0  0  0
   -7.8227   -3.1061  -24.3216 C   0  0  2  0  0  0  0  0  0  0  0  0
   -9.1416   -2.6195  -24.9521 C   0  0  0  0  0  0  0  0  0  0  0  0
   -9.0117   -1.2121  -24.3299 C   0  0  1  0  0  0  0  0  0  0  0  0
   -8.8064   -1.5776  -22.9217 C   0  0  0  0  0  0  0  0  0  0  0  0
   -8.5670   -0.8587  -21.7080 C   0  0  0  0  0  0  0  0  0  0  0  0
   -9.0210    0.1700  -21.2641 O   0  0  0  0  0  0  0  0  0  0  0  0
   -7.5748   -1.6519  -21.0631 N   0  0  0  0  0  0  0  0  0  0  0  0
   -6.7003   -1.1178  -20.0810 C   0  0  0  0  0  0  0  0  0  0  0  0
   -6.9672   -1.3698  -18.7649 C   0  0  0  0  0  0  0  0  0  0  0  0
   -6.2434   -0.8782  -17.7300 N   0  0  0  0  0  0  0  0  0  0  0  0
   -5.2489   -0.0739  -18.0166 C   0  0  0  0  0  0  0  0  0  0  0  0
   -4.9162    0.3338  -19.3455 C   0  0  0  0  0  0  0  0  0  0  0  0
   -3.9186    1.3125  -19.6047 C   0  0  0  0  0  0  0  0  0  0  0  0
   -3.5846    1.6477  -20.8862 C   0  0  0  0  0  0  0  0  0  0  0  0
   -4.2203    1.0031  -21.9739 C   0  0  0  0  0  0  0  0  0  0  0  0
   -5.2164    0.0826  -21.7539 C   0  0  0  0  0  0  0  0  0  0  0  0
   -5.6254   -0.2369  -20.4245 C   0  0  0  0  0  0  0  0  0  0  0  0
   -7.2399   -2.7897  -21.8157 C   0  0  0  0  0  0  0  0  0  0  0  0
   -6.3927   -3.6010  -21.5414 O   0  0  0  0  0  0  0  0  0  0  0  0
   -8.1005   -2.7534  -22.9049 N   0  0  0  0  0  0  0  0  0  0  0  0
   -8.8114    1.5976  -25.4337 H   0  0  0  0  0  0  0  0  0  0  0  0
   -7.3957    2.4546  -24.7480 H   0  0  0  0  0  0  0  0  0  0  0  0
   -8.4836    1.5047  -23.6982 H   0  0  0  0  0  0  0  0  0  0  0  0
   -6.4422   -2.2868  -25.8729 H   0  0  0  0  0  0  0  0  0  0  0  0
   -5.9850   -1.9149  -24.2014 H   0  0  0  0  0  0  0  0  0  0  0  0
   -7.5285   -4.1481  -24.4157 H   0  0  0  0  0  0  0  0  0  0  0  0
  -10.0077   -3.1811  -24.6053 H   0  0  0  0  0  0  0  0  0  0  0  0
   -9.1002   -2.5761  -26.0408 H   0  0  0  0  0  0  0  0  0  0  0  0
   -9.7766   -0.4543  -24.5039 H   0  0  0  0  0  0  0  0  0  0  0  0
   -7.8283   -1.9813  -18.5154 H   0  0  0  0  0  0  0  0  0  0  0  0
   -4.6923    0.3512  -17.1789 H   0  0  0  0  0  0  0  0  0  0  0  0
   -3.4179    1.7773  -18.7593 H   0  0  0  0  0  0  0  0  0  0  0  0
   -2.8569    2.4347  -21.0756 H   0  0  0  0  0  0  0  0  0  0  0  0
   -3.9358    1.2418  -22.9960 H   0  0  0  0  0  0  0  0  0  0  0  0
   -5.6880   -0.3906  -22.6127 H   0  0  0  0  0  0  0  0  0  0  0  0
  1  2  1  0
  2  3  2  0
  2  4  1  0
  4  5  1  0
  5  6  1  0
  6  7  1  0
  7  8  1  0
  8  9  1  0
  9 10  2  0
 10 11  1  0
 10 12  1  0
 12 13  1  0
 13 14  2  0
 14 15  1  0
 15 16  2  0
 16 17  1  0
 17 18  2  0
 18 19  1  0
 19 20  2  0
 20 21  1  0
 21 22  2  0
 12 23  1  0
 23 24  2  0
 23 25  1  0
  8  4  1  0
 25  9  1  0
 25  6  1  0
 22 13  1  0
 22 17  1  0
  1 26  1  0
  1 27  1  0
  1 28  1  0
  5 29  1  0
  5 30  1  0
  6 31  1  1
  7 32  1  0
  7 33  1  0
  8 34  1  1
 14 35  1  0
 16 36  1  0
 18 37  1  0
 19 38  1  0
 20 39  1  0
 21 40  1  0
M  CHG  1  11  -1
M  END
