
     RDKit          3D

 40 44  0  0  0  0  0  0  0  0999 V2000
   -8.4327    1.7816  -24.6931 C   0  0  0  0  0  0  0  0  0  0  0  0
   -7.4752    0.6235  -24.8397 C   0  0  0  0  0  0  0  0  0  0  0  0
   -6.2740    0.7822  -25.0028 O   0  0  0  0  0  0  0  0  0  0  0  0
   -8.0152   -0.6263  -24.7904 N   0  0  0  0  0  0  0  0  0  0  0  0
   -7.1185   -1.7996  -24.6807 C   0  0  0  0  0  0  0  0  0  0  0  0
   -8.0847   -2.8535  -24.0974 C   0  0  2  0  0  0  0  0  0  0  0  0
   -9.4041   -2.4462  -24.7808 C   0  0  0  0  0  0  0  0  0  0  0  0
   -9.3391   -1.0066  -24.2257 C   0  0  1  0  0  0  0  0  0  0  0  0
   -9.1556   -1.2960  -22.7969 C   0  0  0  0  0  0  0  0  0  0  0  0
   -8.9715   -0.5112  -21.6148 C   0  0  0  0  0  0  0  0  0  0  0  0
   -9.4722    0.5205  -21.2324 O   0  0  0  0  0  0  0  0  0  0  0  0
   -7.9680   -1.2358  -20.9094 N   0  0  0  0  0  0  0  0  0  0  0  0
   -7.1372   -0.6235  -19.9351 C   0  0  0  0  0  0  0  0  0  0  0  0
   -7.4272   -0.8212  -18.6146 C   0  0  0  0  0  0  0  0  0  0  0  0
   -6.7467   -0.2543  -17.5889 N   0  0  0  0  0  0  0  0  0  0  0  0
   -5.7744    0.5709  -17.8919 C   0  0  0  0  0  0  0  0  0  0  0  0
   -5.4239    0.9259  -19.2313 C   0  0  0  0  0  0  0  0  0  0  0  0
   -4.4554    1.9266  -19.5155 C   0  0  0  0  0  0  0  0  0  0  0  0
   -4.1021    2.2116  -20.8040 C   0  0  0  0  0  0  0  0  0  0  0  0
   -4.6879    1.4925  -21.8729 C   0  0  0  0  0  0  0  0  0  0  0  0
   -5.6560    0.5481  -21.6307 C   0  0  0  0  0  0  0  0  0  0  0  0
   -6.0859    0.2784  -20.2969 C   0  0  0  0  0  0  0  0  0  0  0  0
   -7.5749   -2.3956  -21.5974 C   0  0  0  0  0  0  0  0  0  0  0  0
   -6.7066   -3.1613  -21.2645 O   0  0  0  0  0  0  0  0  0  0  0  0
   -8.4093   -2.4432  -22.7064 N   0  0  0  0  0  0  0  0  0  0  0  0
   -9.2110    1.7520  -25.4612 H   0  0  0  0  0  0  0  0  0  0  0  0
   -7.8436    2.6921  -24.7863 H   0  0  0  0  0  0  0  0  0  0  0  0
   -8.9227    1.7549  -23.7162 H   0  0  0  0  0  0  0  0  0  0  0  0
   -6.6964   -2.0602  -25.6553 H   0  0  0  0  0  0  0  0  0  0  0  0
   -6.2936   -1.5918  -23.9941 H   0  0  0  0  0  0  0  0  0  0  0  0
   -7.7517   -3.8874  -24.1335 H   0  0  0  0  0  0  0  0  0  0  0  0
  -10.2581   -3.0215  -24.4267 H   0  0  0  0  0  0  0  0  0  0  0  0
   -9.3376   -2.4538  -25.8691 H   0  0  0  0  0  0  0  0  0  0  0  0
  -10.1258   -0.2864  -24.4540 H   0  0  0  0  0  0  0  0  0  0  0  0
   -8.2720   -1.4509  -18.3550 H   0  0  0  0  0  0  0  0  0  0  0  0
   -5.2538    1.0559  -17.0637 H   0  0  0  0  0  0  0  0  0  0  0  0
   -3.9922    2.4496  -18.6828 H   0  0  0  0  0  0  0  0  0  0  0  0
   -3.3982    3.0145  -21.0152 H   0  0  0  0  0  0  0  0  0  0  0  0
   -4.3871    1.6919  -22.8988 H   0  0  0  0  0  0  0  0  0  0  0  0
   -6.0895    0.0172  -22.4757 H   0  0  0  0  0  0  0  0  0  0  0  0
  1  2  1  0
  2  3  2  0
  2  4  1  0
  4  5  1  0
  5  6  1  0
  6  7  1  0
  7  8  1  0
  8  9  1  0
  9 10  2  0
 10 11  1  0
 10 12  1  0
 12 13  1  0
 13 14  2  0
 14 15  1  0
 15 16  2  0
 16 17  1  0
 17 18  2  0
 18 19  1  0
 19 20  2  0
 20 21  1  0
 21 22  2  0
 12 23  1  0
 23 24  2  0
 23 25  1  0
  8  4  1  0
 25  9  1  0
 25  6  1  0
 22 13  1  0
 22 17  1  0
  1 26  1  0
  1 27  1  0
  1 28  1  0
  5 29  1  0
  5 30  1  0
  6 31  1  1
  7 32  1  0
  7 33  1  0
  8 34  1  1
 14 35  1  0
 16 36  1  0
 18 37  1  0
 19 38  1  0
 20 39  1  0
 21 40  1  0
M  CHG  1  11  -1
M  END
$$$$
