mobile
  PyMOL3.1          3D                             0

 39 42  0  0  0  0  0  0  0  0999 V2000
  -13.0017   -2.6599  -21.3015 Cl  0  0  0  0  0  0  0  0  0  0  0  0
  -11.9869   -1.7455  -22.3778 C   0  0  0  0  0  0  0  0  0  0  0  0
  -12.5707   -0.8931  -23.2884 C   0  0  0  0  0  0  0  0  0  0  0  0
  -11.7641   -0.1840  -24.1590 C   0  0  0  0  0  0  0  0  0  0  0  0
  -10.6189   -1.9010  -22.2966 C   0  0  0  0  0  0  0  0  0  0  0  0
   -9.7898   -1.1789  -23.1513 C   0  0  0  0  0  0  0  0  0  0  0  0
  -10.3870   -0.3264  -24.0824 C   0  0  0  0  0  0  0  0  0  0  0  0
   -9.6511    0.4278  -24.9612 O   0  0  0  0  0  0  0  0  0  0  0  0
   -8.4488   -0.2197  -25.3899 C   0  0  0  0  0  0  0  0  0  0  0  0
   -7.5291   -0.5405  -24.2354 C   0  0  0  0  0  0  0  0  0  0  0  0
   -8.2784   -1.2813  -23.0818 C   0  0  0  0  0  0  0  0  0  0  0  0
   -7.8419   -0.6701  -21.7494 C   0  0  0  0  0  0  0  0  0  0  0  0
   -8.4109    0.3000  -21.2600 O   0  0  0  0  0  0  0  0  0  0  0  0
   -6.7506   -1.2434  -21.1908 N   0  0  0  0  0  0  0  0  0  0  0  0
   -6.0394   -0.7189  -20.0776 C   0  0  0  0  0  0  0  0  0  0  0  0
   -6.5203   -0.8956  -18.7824 C   0  0  0  0  0  0  0  0  0  0  0  0
   -5.9163   -0.4129  -17.6941 N   0  0  0  0  0  0  0  0  0  0  0  0
   -4.7717    0.2551  -17.8619 C   0  0  0  0  0  0  0  0  0  0  0  0
   -4.8465    0.0011  -20.2514 C   0  0  0  0  0  0  0  0  0  0  0  0
   -4.0662    0.4274  -21.3187 N   0  0  0  0  0  0  0  0  0  0  0  0
   -4.3133    0.2458  -22.7441 C   0  0  0  0  0  0  0  0  0  0  0  0
   -4.1875    0.4724  -19.1062 C   0  0  0  0  0  0  0  0  0  0  0  0
   -3.0133    1.1275  -19.4662 N   0  0  0  0  0  0  0  0  0  0  0  0
   -3.0023    1.0712  -20.7729 C   0  0  0  0  0  0  0  0  0  0  0  0
  -13.6442   -0.7809  -23.3218 H   0  0  0  0  0  0  0  0  0  0  0  0
  -12.2030    0.4753  -24.8927 H   0  0  0  0  0  0  0  0  0  0  0  0
  -10.1927   -2.5802  -21.5734 H   0  0  0  0  0  0  0  0  0  0  0  0
   -8.7145   -1.1567  -25.9018 H   0  0  0  0  0  0  0  0  0  0  0  0
   -7.9202    0.4434  -26.0902 H   0  0  0  0  0  0  0  0  0  0  0  0
   -6.7132   -1.1824  -24.5993 H   0  0  0  0  0  0  0  0  0  0  0  0
   -7.1111    0.3982  -23.8432 H   0  0  0  0  0  0  0  0  0  0  0  0
   -7.9877   -2.3422  -23.1011 H   0  0  0  0  0  0  0  0  0  0  0  0
   -6.4208   -2.0991  -21.5908 H   0  0  0  0  0  0  0  0  0  0  0  0
   -7.4344   -1.4544  -18.6511 H   0  0  0  0  0  0  0  0  0  0  0  0
   -4.2735    0.6469  -16.9869 H   0  0  0  0  0  0  0  0  0  0  0  0
   -5.2665    0.7234  -23.0153 H   0  0  0  0  0  0  0  0  0  0  0  0
   -3.4960    0.7052  -23.3196 H   0  0  0  0  0  0  0  0  0  0  0  0
   -4.3637   -0.8289  -22.9743 H   0  0  0  0  0  0  0  0  0  0  0  0
   -2.2122    1.5037  -21.3695 H   0  0  0  0  0  0  0  0  0  0  0  0
  1  2  1  0  0  0  0
  2  3  4  0  0  0  0
  2  5  4  0  0  0  0
  3  4  4  0  0  0  0
  3 25  1  0  0  0  0
  4  7  4  0  0  0  0
  4 26  1  0  0  0  0
  5  6  4  0  0  0  0
  5 27  1  0  0  0  0
  6  7  4  0  0  0  0
  6 11  1  0  0  0  0
  7  8  1  0  0  0  0
  8  9  1  0  0  0  0
  9 10  1  0  0  0  0
  9 28  1  0  0  0  0
  9 29  1  0  0  0  0
 10 11  1  0  0  0  0
 10 30  1  0  0  0  0
 10 31  1  0  0  0  0
 11 12  1  0  0  0  0
 11 32  1  0  0  0  0
 12 13  2  0  0  0  0
 12 14  1  0  0  0  0
 14 15  1  0  0  0  0
 14 33  1  0  0  0  0
 15 16  4  0  0  0  0
 15 19  4  0  0  0  0
 16 17  4  0  0  0  0
 16 34  1  0  0  0  0
 17 18  4  0  0  0  0
 18 22  4  0  0  0  0
 18 35  1  0  0  0  0
 19 20  4  0  0  0  0
 19 22  4  0  0  0  0
 20 21  1  0  0  0  0
 20 24  4  0  0  0  0
 21 36  1  0  0  0  0
 21 37  1  0  0  0  0
 21 38  1  0  0  0  0
 22 23  4  0  0  0  0
 23 24  4  0  0  0  0
 24 39  1  0  0  0  0
M  END
$$$$
