
     RDKit          3D

 40 43  0  0  0  0  0  0  0  0999 V2000
    5.3974    1.0626   22.4403 C   0  0  0  0  0  0  0  0  0  0  0  0
    5.0183    1.2283   21.0630 N   0  0  0  0  0  0  0  0  0  0  0  0
    3.9191    1.9353   20.7546 N   0  0  0  0  0  0  0  0  0  0  0  0
    3.8140    1.9088   19.4458 C   0  0  0  0  0  0  0  0  0  0  0  0
    4.8660    1.1461   18.8597 C   0  0  0  0  0  0  0  0  0  0  0  0
    5.2737    0.7601   17.5639 C   0  0  0  0  0  0  0  0  0  0  0  0
    6.3842    0.0661   17.3884 N   0  0  0  0  0  0  0  0  0  0  0  0
    7.1165   -0.3066   18.4614 C   0  0  0  0  0  0  0  0  0  0  0  0
    6.8116   -0.0427   19.7902 C   0  0  0  0  0  0  0  0  0  0  0  0
    7.5013   -0.7065   20.8527 N   0  0  0  0  0  0  0  0  0  0  0  0
    8.6680   -0.3209   21.4893 C   0  0  0  0  0  0  0  0  0  0  0  0
    9.2761    0.6967   21.2262 O   0  0  0  0  0  0  0  0  0  0  0  0
    9.0413   -1.2243   22.6855 C   0  0  2  0  0  0  0  0  0  0  0  0
    8.1258   -0.7358   23.8494 C   0  0  0  0  0  0  0  0  0  0  0  0
    8.7714   -0.6910   25.1517 N   0  0  0  0  0  0  0  0  0  0  0  0
   10.0347    0.3813   25.2290 S   0  0  0  0  0  0  0  0  0  0  0  0
    9.5070    1.7032   24.9381 O   0  0  0  0  0  0  0  0  0  0  0  0
   10.7381    0.0849   26.4621 O   0  0  0  0  0  0  0  0  0  0  0  0
   11.0396   -0.2033   23.8832 C   0  0  0  0  0  0  0  0  0  0  0  0
   12.3831    0.1576   23.8641 C   0  0  0  0  0  0  0  0  0  0  0  0
   13.2742   -0.5884   23.1042 C   0  0  0  0  0  0  0  0  0  0  0  0
   12.7971   -1.6961   22.4095 C   0  0  0  0  0  0  0  0  0  0  0  0
   13.9053   -2.7553   21.5913 Cl  0  0  0  0  0  0  0  0  0  0  0  0
   11.4374   -1.9712   22.3288 C   0  0  0  0  0  0  0  0  0  0  0  0
   10.5252   -1.1481   22.9918 C   0  0  0  0  0  0  0  0  0  0  0  0
    5.6414    0.7347   19.9611 C   0  0  0  0  0  0  0  0  0  0  0  0
    4.6593    1.5804   23.0495 H   0  0  0  0  0  0  0  0  0  0  0  0
    5.4236   -0.0018   22.6912 H   0  0  0  0  0  0  0  0  0  0  0  0
    6.3847    1.4994   22.5991 H   0  0  0  0  0  0  0  0  0  0  0  0
    2.9897    2.4179   18.9780 H   0  0  0  0  0  0  0  0  0  0  0  0
    4.6909    1.0204   16.6819 H   0  0  0  0  0  0  0  0  0  0  0  0
    8.0145   -0.8818   18.2379 H   0  0  0  0  0  0  0  0  0  0  0  0
    7.1909   -1.6493   21.0404 H   0  0  0  0  0  0  0  0  0  0  0  0
    8.8028   -2.2658   22.4352 H   0  0  0  0  0  0  0  0  0  0  0  0
    7.2388   -1.3719   23.9415 H   0  0  0  0  0  0  0  0  0  0  0  0
    7.8001    0.2843   23.6301 H   0  0  0  0  0  0  0  0  0  0  0  0
    9.0527   -1.6000   25.4999 H   0  0  0  0  0  0  0  0  0  0  0  0
   12.7474    0.9752   24.4789 H   0  0  0  0  0  0  0  0  0  0  0  0
   14.3279   -0.3404   23.0681 H   0  0  0  0  0  0  0  0  0  0  0  0
   11.0830   -2.7899   21.7065 H   0  0  0  0  0  0  0  0  0  0  0  0
  1  2  1  0
  2  3  1  0
  3  4  2  0
  4  5  1  0
  5  6  2  0
  6  7  1  0
  7  8  2  0
  8  9  1  0
  9 10  1  0
 10 11  1  0
 11 12  2  0
 11 13  1  0
 13 14  1  0
 14 15  1  0
 15 16  1  0
 16 17  2  0
 16 18  2  0
 16 19  1  0
 19 20  2  0
 20 21  1  0
 21 22  2  0
 22 23  1  0
 22 24  1  0
 24 25  2  0
  9 26  2  0
 26  2  1  0
 26  5  1  0
 25 13  1  0
 25 19  1  0
  1 27  1  0
  1 28  1  0
  1 29  1  0
  4 30  1  0
  6 31  1  0
  8 32  1  0
 10 33  1  0
 13 34  1  6
 14 35  1  0
 14 36  1  0
 15 37  1  0
 20 38  1  0
 21 39  1  0
 24 40  1  0
M  END
$$$$
