
     RDKit          3D

 57 62  0  0  0  0  0  0  0  0999 V2000
    7.2721    4.6537   22.3826 C   0  0  0  0  0  0  0  0  0  0  0  0
    8.0953    3.7526   23.1664 N   0  0  0  0  0  0  0  0  0  0  0  0
    7.8535    3.6073   24.4828 C   0  0  0  0  0  0  0  0  0  0  0  0
    7.0822    4.3185   25.1129 O   0  0  0  0  0  0  0  0  0  0  0  0
    8.5590    2.4700   25.2288 C   0  0  0  0  0  0  0  0  0  0  0  0
    9.4036    1.5965   24.4522 N   0  0  0  0  0  0  0  0  0  0  0  0
    8.9561    0.2383   24.2236 C   0  0  0  0  0  0  0  0  0  0  0  0
    9.4943   -0.3706   22.8965 C   0  0  2  0  0  0  0  0  0  0  0  0
    8.8685    0.4298   21.7254 C   0  0  0  0  0  0  0  0  0  0  0  0
    9.1588    1.5709   21.4179 O   0  0  0  0  0  0  0  0  0  0  0  0
    7.8883   -0.3236   21.1204 N   0  0  0  0  0  0  0  0  0  0  0  0
    7.0111    0.1640   20.0997 C   0  0  0  0  0  0  0  0  0  0  0  0
    7.2273   -0.1837   18.7882 C   0  0  0  0  0  0  0  0  0  0  0  0
    6.4388    0.1907   17.7470 N   0  0  0  0  0  0  0  0  0  0  0  0
    5.3981    0.9416   18.0051 C   0  0  0  0  0  0  0  0  0  0  0  0
    5.0608    1.3967   19.3123 C   0  0  0  0  0  0  0  0  0  0  0  0
    3.9495    2.2514   19.5390 C   0  0  0  0  0  0  0  0  0  0  0  0
    3.6236    2.6504   20.8020 C   0  0  0  0  0  0  0  0  0  0  0  0
    4.3965    2.2112   21.8978 C   0  0  0  0  0  0  0  0  0  0  0  0
    5.4949    1.4087   21.7073 C   0  0  0  0  0  0  0  0  0  0  0  0
    5.8702    0.9843   20.4017 C   0  0  0  0  0  0  0  0  0  0  0  0
    7.6670   -1.5941   21.7702 C   0  0  0  0  0  0  0  0  0  0  0  0
    8.8902   -1.7738   22.6736 C   0  0  0  0  0  0  0  0  0  0  0  0
    9.5878   -3.0969   22.6098 C   0  0  0  0  0  0  0  0  0  0  0  0
    8.7600   -2.7626   23.8111 C   0  0  0  0  0  0  0  0  0  0  0  0
   11.0053   -0.1814   22.9524 C   0  0  0  0  0  0  0  0  0  0  0  0
   11.9113   -1.0574   22.3635 C   0  0  0  0  0  0  0  0  0  0  0  0
   13.2572   -0.7543   22.2974 C   0  0  0  0  0  0  0  0  0  0  0  0
   14.2868   -1.8669   21.4367 Cl  0  0  0  0  0  0  0  0  0  0  0  0
   13.7802    0.4239   22.8263 C   0  0  0  0  0  0  0  0  0  0  0  0
   12.9011    1.3050   23.4208 C   0  0  0  0  0  0  0  0  0  0  0  0
   11.5428    1.0015   23.4975 C   0  0  0  0  0  0  0  0  0  0  0  0
   10.6633    2.0223   24.1404 C   0  0  0  0  0  0  0  0  0  0  0  0
   11.0384    3.1720   24.3417 O   0  0  0  0  0  0  0  0  0  0  0  0
    7.5454    5.7051   22.5312 H   0  0  0  0  0  0  0  0  0  0  0  0
    6.2138    4.5402   22.6526 H   0  0  0  0  0  0  0  0  0  0  0  0
    7.3957    4.3985   21.3261 H   0  0  0  0  0  0  0  0  0  0  0  0
    8.7107    3.1173   22.6615 H   0  0  0  0  0  0  0  0  0  0  0  0
    9.1290    2.9195   26.0425 H   0  0  0  0  0  0  0  0  0  0  0  0
    7.7673    1.8719   25.6939 H   0  0  0  0  0  0  0  0  0  0  0  0
    7.8648    0.2259   24.1741 H   0  0  0  0  0  0  0  0  0  0  0  0
    9.2720   -0.4114   25.0466 H   0  0  0  0  0  0  0  0  0  0  0  0
    8.1029   -0.7754   18.5205 H   0  0  0  0  0  0  0  0  0  0  0  0
    4.7746    1.2583   17.1661 H   0  0  0  0  0  0  0  0  0  0  0  0
    3.3708    2.5867   18.6854 H   0  0  0  0  0  0  0  0  0  0  0  0
    2.7810    3.3140   20.9721 H   0  0  0  0  0  0  0  0  0  0  0  0
    4.1329    2.5380   22.8968 H   0  0  0  0  0  0  0  0  0  0  0  0
    6.0818    1.0992   22.5677 H   0  0  0  0  0  0  0  0  0  0  0  0
    6.7428   -1.5669   22.3684 H   0  0  0  0  0  0  0  0  0  0  0  0
    7.5615   -2.3994   21.0399 H   0  0  0  0  0  0  0  0  0  0  0  0
   10.6534   -3.1574   22.7730 H   0  0  0  0  0  0  0  0  0  0  0  0
    9.2001   -3.8296   21.9019 H   0  0  0  0  0  0  0  0  0  0  0  0
    9.2903   -2.5357   24.7343 H   0  0  0  0  0  0  0  0  0  0  0  0
    7.7995   -3.2467   23.9766 H   0  0  0  0  0  0  0  0  0  0  0  0
   11.5741   -1.9231   21.8167 H   0  0  0  0  0  0  0  0  0  0  0  0
   14.8383    0.6412   22.7261 H   0  0  0  0  0  0  0  0  0  0  0  0
   13.2560    2.2492   23.8241 H   0  0  0  0  0  0  0  0  0  0  0  0
  1  2  1  0
  2  3  1  0
  3  4  2  0
  3  5  1  0
  5  6  1  0
  6  7  1  0
  8  7  1  1
  8  9  1  0
  9 10  2  0
  9 11  1  0
 11 12  1  0
 12 13  2  0
 13 14  1  0
 14 15  2  0
 15 16  1  0
 16 17  2  0
 17 18  1  0
 18 19  2  0
 19 20  1  0
 20 21  2  0
 11 22  1  0
 22 23  1  0
 23 24  1  0
 24 25  1  0
  8 26  1  0
 26 27  2  0
 27 28  1  0
 28 29  1  0
 28 30  2  0
 30 31  1  0
 31 32  2  0
 32 33  1  0
 33 34  2  0
 33  6  1  0
 23  8  1  0
 32 26  1  0
 21 12  1  0
 25 23  1  0
 21 16  1  0
  1 35  1  0
  1 36  1  0
  1 37  1  0
  2 38  1  0
  5 39  1  0
  5 40  1  0
  7 41  1  0
  7 42  1  0
 13 43  1  0
 15 44  1  0
 17 45  1  0
 18 46  1  0
 19 47  1  0
 20 48  1  0
 22 49  1  0
 22 50  1  0
 24 51  1  0
 24 52  1  0
 25 53  1  0
 25 54  1  0
 27 55  1  0
 30 56  1  0
 31 57  1  0
M  END
$$$$
