
     RDKit          3D

 40 44  0  0  0  0  0  0  0  0999 V2000
   -6.8648   -3.2260  -21.2498 O   0  0  0  0  0  0  0  0  0  0  0  0
   -7.7457   -2.4521  -21.5288 C   0  0  0  0  0  0  0  0  0  0  0  0
   -8.7508   -2.6078  -22.4632 N   0  0  0  0  0  0  0  0  0  0  0  0
   -9.3328   -1.3231  -22.8479 C   0  0  1  0  0  0  0  0  0  0  0  0
   -8.6269   -0.7320  -24.0914 C   0  0  0  0  0  0  0  0  0  0  0  0
   -9.4290    0.4452  -24.6151 C   0  0  0  0  0  0  0  0  0  0  0  0
  -10.7446    0.0466  -25.0004 O   0  0  0  0  0  0  0  0  0  0  0  0
  -11.4390   -0.6779  -24.0990 C   0  0  0  0  0  0  0  0  0  0  0  0
  -12.8212   -0.7369  -24.2242 C   0  0  0  0  0  0  0  0  0  0  0  0
  -13.5234   -1.4423  -23.2616 C   0  0  0  0  0  0  0  0  0  0  0  0
  -12.9608   -2.1159  -22.2541 N   0  0  0  0  0  0  0  0  0  0  0  0
  -11.6339   -2.0812  -22.1794 C   0  0  0  0  0  0  0  0  0  0  0  0
  -10.8197   -1.3787  -23.0648 C   0  0  0  0  0  0  0  0  0  0  0  0
   -8.9736   -0.5013  -21.5935 C   0  0  0  0  0  0  0  0  0  0  0  0
   -9.4625    0.5205  -21.1989 O   0  0  0  0  0  0  0  0  0  0  0  0
   -7.9399   -1.1892  -20.9567 N   0  0  0  0  0  0  0  0  0  0  0  0
   -7.1085   -0.6193  -19.9589 C   0  0  0  0  0  0  0  0  0  0  0  0
   -7.4062   -0.8264  -18.6429 C   0  0  0  0  0  0  0  0  0  0  0  0
   -6.7259   -0.2770  -17.6059 N   0  0  0  0  0  0  0  0  0  0  0  0
   -5.7522    0.5530  -17.8889 C   0  0  0  0  0  0  0  0  0  0  0  0
   -5.3879    0.9153  -19.2221 C   0  0  0  0  0  0  0  0  0  0  0  0
   -4.4352    1.9298  -19.5055 C   0  0  0  0  0  0  0  0  0  0  0  0
   -4.0898    2.2218  -20.7955 C   0  0  0  0  0  0  0  0  0  0  0  0
   -4.6485    1.4863  -21.8686 C   0  0  0  0  0  0  0  0  0  0  0  0
   -5.5999    0.5286  -21.6213 C   0  0  0  0  0  0  0  0  0  0  0  0
   -6.0386    0.2679  -20.2952 C   0  0  0  0  0  0  0  0  0  0  0  0
   -8.5372   -3.2783  -23.1849 H   0  0  0  0  0  0  0  0  0  0  0  0
   -8.5502   -1.5103  -24.8596 H   0  0  0  0  0  0  0  0  0  0  0  0
   -7.6064   -0.4190  -23.8368 H   0  0  0  0  0  0  0  0  0  0  0  0
   -8.9902    0.8817  -25.5148 H   0  0  0  0  0  0  0  0  0  0  0  0
   -9.5008    1.2197  -23.8424 H   0  0  0  0  0  0  0  0  0  0  0  0
  -13.3081   -0.2095  -25.0368 H   0  0  0  0  0  0  0  0  0  0  0  0
  -14.6098   -1.4572  -23.2902 H   0  0  0  0  0  0  0  0  0  0  0  0
  -11.1635   -2.6373  -21.3704 H   0  0  0  0  0  0  0  0  0  0  0  0
   -8.2580   -1.4508  -18.3920 H   0  0  0  0  0  0  0  0  0  0  0  0
   -5.2389    1.0315  -17.0480 H   0  0  0  0  0  0  0  0  0  0  0  0
   -3.9802    2.4628  -18.6743 H   0  0  0  0  0  0  0  0  0  0  0  0
   -3.4017    3.0375  -21.0082 H   0  0  0  0  0  0  0  0  0  0  0  0
   -4.3437    1.6904  -22.8923 H   0  0  0  0  0  0  0  0  0  0  0  0
   -6.0245   -0.0351  -22.4458 H   0  0  0  0  0  0  0  0  0  0  0  0
  1  2  2  0
  2  3  1  0
  4  3  1  6
  4  5  1  0
  5  6  1  0
  6  7  1  0
  7  8  1  0
  8  9  2  0
  9 10  1  0
 10 11  2  0
 11 12  1  0
 12 13  2  0
  4 14  1  0
 14 15  2  0
 14 16  1  0
 16 17  1  0
 17 18  2  0
 18 19  1  0
 19 20  2  0
 20 21  1  0
 21 22  2  0
 22 23  1  0
 23 24  2  0
 24 25  1  0
 25 26  2  0
 16  2  1  0
 26 17  1  0
 13  4  1  0
 26 21  1  0
 13  8  1  0
  3 27  1  0
  5 28  1  0
  5 29  1  0
  6 30  1  0
  6 31  1  0
  9 32  1  0
 10 33  1  0
 12 34  1  0
 18 35  1  0
 20 36  1  0
 22 37  1  0
 23 38  1  0
 24 39  1  0
 25 40  1  0
M  END
$$$$
