LIG(A-306)
     RDKit          3D

 27 31  0  0  1  0  0  0  0  0999 V2000
   -9.4765    0.4808  -21.2493 O   0  0  0  0  0  0  0  0  0  0  0  0
   -8.9496   -0.5502  -21.6186 C   0  0  0  0  0  0  0  0  0  0  0  0
   -9.3194   -1.3600  -22.8609 C   0  0  2  0  0  0  0  0  0  0  0  0
   -8.6244   -0.6975  -24.0756 C   0  0  0  0  0  0  0  0  0  0  0  0
   -9.4574    0.4256  -24.6555 C   0  0  0  0  0  0  0  0  0  0  0  0
  -10.7432   -0.0537  -25.0744 O   0  0  0  0  0  0  0  0  0  0  0  0
  -10.8408   -1.4165  -23.0520 C   0  0  0  0  0  0  0  0  0  0  0  0
  -11.4526   -0.7303  -24.1128 C   0  0  0  0  0  0  0  0  0  0  0  0
  -12.8287   -0.7003  -24.2608 C   0  0  0  0  0  0  0  0  0  0  0  0
  -13.6261   -1.3515  -23.3379 C   0  0  0  0  0  0  0  0  0  0  0  0
  -11.6592   -2.0906  -22.1462 C   0  0  0  0  0  0  0  0  0  0  0  0
  -13.0353   -2.0336  -22.2991 C   0  0  0  0  0  0  0  0  0  0  0  0
  -14.0497   -2.8411  -21.1375 Cl  0  0  0  0  0  0  0  0  0  0  0  0
   -7.8904   -1.2091  -20.9804 N   0  0  0  0  0  0  0  0  0  0  0  0
   -7.6133   -2.4559  -21.5421 C   0  0  0  0  0  0  0  0  0  0  0  0
   -6.6476   -3.1474  -21.2458 O   0  0  0  0  0  0  0  0  0  0  0  0
   -8.6654   -2.7316  -22.5816 C   0  0  0  0  0  0  0  0  0  0  0  0
   -7.1014   -0.6158  -19.9314 C   0  0  0  0  0  0  0  0  0  0  0  0
   -6.0965    0.3349  -20.2735 C   0  0  0  0  0  0  0  0  0  0  0  0
   -5.6238    0.5663  -21.5913 C   0  0  0  0  0  0  0  0  0  0  0  0
   -4.6657    1.5087  -21.8424 C   0  0  0  0  0  0  0  0  0  0  0  0
   -4.1294    2.2648  -20.8085 C   0  0  0  0  0  0  0  0  0  0  0  0
   -4.5421    2.0724  -19.5206 C   0  0  0  0  0  0  0  0  0  0  0  0
   -5.5321    1.1028  -19.2166 C   0  0  0  0  0  0  0  0  0  0  0  0
   -5.9979    0.8534  -17.9008 C   0  0  0  0  0  0  0  0  0  0  0  0
   -6.9337   -0.0363  -17.5936 N   0  0  0  0  0  0  0  0  0  0  0  0
   -7.4679   -0.7455  -18.5963 C   0  0  0  0  0  0  0  0  0  0  0  0
  1  2  2  0
  3  2  1  0
  2 14  1  0
  3  4  1  6
  3  7  1  0
  3 17  1  0
  4  5  1  0
  5  6  1  0
  6  8  1  0
  7  8  2  0
  7 11  1  0
  8  9  1  0
  9 10  2  0
 10 12  1  0
 11 12  2  0
 12 13  1  0
 14 15  1  0
 14 18  1  0
 15 16  2  0
 15 17  1  0
 18 19  1  0
 18 27  2  0
 19 20  2  0
 19 24  1  0
 20 21  1  0
 21 22  2  0
 22 23  1  0
 23 24  2  0
 24 25  1  0
 25 26  2  0
 26 27  1  0
M  END
$$$$
