
     RDKit          3D

 46 48  0  0  0  0  0  0  0  0999 V2000
   -7.8639   -7.7051  -28.1009 C   0  0  0  0  0  0  0  0  0  0  0  0
   -8.7067   -6.4613  -28.4316 C   0  0  0  0  0  0  0  0  0  0  0  0
  -10.2026   -6.7887  -28.5628 C   0  0  0  0  0  0  0  0  0  0  0  0
   -8.3790   -5.1771  -27.5477 C   0  0  0  0  0  0  0  0  0  0  0  0
   -9.3168   -4.8520  -26.0775 C   0  0  0  0  0  0  0  0  0  0  0  0
   -7.9857   -4.4360  -25.0564 C   0  0  0  0  0  0  0  0  0  0  0  0
   -8.1081   -3.7316  -24.3852 N   0  0  0  0  0  0  0  0  0  0  0  0
   -7.7808   -3.2237  -23.2416 C   0  0  0  0  0  0  0  0  0  0  0  0
   -6.9616   -3.5257  -22.4049 O   0  0  0  0  0  0  0  0  0  0  0  0
   -8.3055   -1.7406  -22.5356 C   0  0  0  0  0  0  0  0  0  0  0  0
   -8.5983   -1.9258  -22.3677 C   0  0  0  0  0  0  0  0  0  0  0  0
   -8.4364   -1.7896  -22.4600 C   0  0  0  0  0  0  0  0  0  0  0  0
  -10.2445   -3.6315  -21.5998 N   0  0  0  0  0  0  0  0  0  0  0  0
  -11.4920   -3.6427  -21.8554 C   0  0  0  0  0  0  0  0  0  0  0  0
  -12.2523   -2.6892  -22.6968 C   0  0  0  0  0  0  0  0  0  0  0  0
  -13.5641   -0.6971  -23.2518 C   0  0  0  0  0  0  0  0  0  0  0  0
  -13.5632   -0.6967  -23.2505 C   0  0  0  0  0  0  0  0  0  0  0  0
  -13.0441    0.6701  -23.3260 C   0  0  0  0  0  0  0  0  0  0  0  0
  -11.5640   -1.9161  -23.5347 C   0  0  0  0  0  0  0  0  0  0  0  0
  -10.6244   -1.1265  -23.9102 C   0  0  0  0  0  0  0  0  0  0  0  0
   -8.0563   -3.9511  -24.8460 C   0  0  0  0  0  0  0  0  0  0  0  0
   -9.0811   -4.6435  -26.2161 C   0  0  0  0  0  0  0  0  0  0  0  0
   -7.8808   -8.4075  -28.9478 H   0  0  0  0  0  0  0  0  0  0  0  0
   -8.2216   -8.2548  -27.2187 H   0  0  0  0  0  0  0  0  0  0  0  0
   -6.8138   -7.4381  -27.9226 H   0  0  0  0  0  0  0  0  0  0  0  0
   -8.3642   -6.1454  -29.4309 H   0  0  0  0  0  0  0  0  0  0  0  0
  -10.8070   -5.8850  -28.7132 H   0  0  0  0  0  0  0  0  0  0  0  0
  -10.6122   -7.3452  -27.7062 H   0  0  0  0  0  0  0  0  0  0  0  0
  -10.3677   -7.4318  -29.4314 H   0  0  0  0  0  0  0  0  0  0  0  0
   -7.2960   -5.2304  -27.4056 H   0  0  0  0  0  0  0  0  0  0  0  0
   -9.7554   -6.0035  -25.8722 H   0  0  0  0  0  0  0  0  0  0  0  0
  -10.4022   -5.0568  -25.4426 H   0  0  0  0  0  0  0  0  0  0  0  0
   -8.7684   -4.6216  -24.1817 H   0  0  0  0  0  0  0  0  0  0  0  0
   -7.0631   -5.7195  -25.1369 H   0  0  0  0  0  0  0  0  0  0  0  0
   -7.7195   -1.9713  -21.4510 H   0  0  0  0  0  0  0  0  0  0  0  0
   -9.0433   -1.7032  -23.5364 H   0  0  0  0  0  0  0  0  0  0  0  0
   -9.5866   -3.3501  -22.3143 H   0  0  0  0  0  0  0  0  0  0  0  0
  -12.1873   -4.3449  -21.3658 H   0  0  0  0  0  0  0  0  0  0  0  0
  -13.5171   -1.8795  -22.8472 H   0  0  0  0  0  0  0  0  0  0  0  0
  -13.9624    0.9248  -22.9572 H   0  0  0  0  0  0  0  0  0  0  0  0
  -12.3604    0.8061  -24.1110 H   0  0  0  0  0  0  0  0  0  0  0  0
  -10.9636   -0.2005  -24.4003 H   0  0  0  0  0  0  0  0  0  0  0  0
   -7.8393   -3.1198  -27.0195 H   0  0  0  0  0  0  0  0  0  0  0  0
   -7.5015   -2.7723  -26.4678 H   0  0  0  0  0  0  0  0  0  0  0  0
   -8.5128   -4.3375  -28.2317 H   0  0  0  0  0  0  0  0  0  0  0  0
   -9.8821   -3.8090  -26.7608 H   0  0  0  0  0  0  0  0  0  0  0  0
  1  2  1  0
  2  3  1  0
  2  4  1  0
  4  5  1  0
  5  6  1  0
  6  7  1  0
  7  8  1  0
  8  9  2  0
  8 10  1  0
 10 11  1  0
 11 12  2  0
 12 13  1  0
 13 14  2  0
 14 15  1  0
 15 16  2  0
 16 17  1  0
 17 18  2  0
 18 19  1  0
 19 20  2  0
  7 21  1  0
 21 22  1  0
 22  4  1  0
 20 11  1  0
 20 15  1  0
  1 23  1  0
  1 24  1  0
  1 25  1  0
  2 26  1  0
  3 27  1  0
  3 28  1  0
  3 29  1  0
  4 30  1  0
  5 31  1  0
  5 32  1  0
  6 33  1  0
  6 34  1  0
 10 35  1  0
 10 36  1  0
 12 37  1  0
 14 38  1  0
 16 39  1  0
 17 40  1  0
 18 41  1  0
 19 42  1  0
 21 43  1  0
 21 44  1  0
 22 45  1  0
 22 46  1  0
M  END
