
     RDKit          3D

 46 48  0  0  0  0  0  0  0  0999 V2000
    8.4113   -6.5897   28.1125 C   0  0  0  0  0  0  0  0  0  0  0  0
    9.2122   -5.3121   28.4171 C   0  0  0  0  0  0  0  0  0  0  0  0
   10.7195   -5.5849   28.5426 C   0  0  0  0  0  0  0  0  0  0  0  0
    8.8339   -4.0546   27.5153 C   0  0  0  0  0  0  0  0  0  0  0  0
    9.7498   -3.7209   26.0332 C   0  0  0  0  0  0  0  0  0  0  0  0
    8.3980   -3.3682   25.0154 C   0  0  0  0  0  0  0  0  0  0  0  0
    8.4912   -2.6709   24.3321 N   0  0  0  0  0  0  0  0  0  0  0  0
    8.1386   -2.1933   23.1830 C   0  0  0  0  0  0  0  0  0  0  0  0
    7.3248   -2.5373   22.3573 O   0  0  0  0  0  0  0  0  0  0  0  0
    8.6063   -0.7045   22.4496 C   0  0  0  0  0  0  0  0  0  0  0  0
    8.9043   -0.8821   22.2825 C   0  0  0  0  0  0  0  0  0  0  0  0
    8.7383   -0.7501   22.3738 C   0  0  0  0  0  0  0  0  0  0  0  0
   10.6039   -2.5416   21.5299 N   0  0  0  0  0  0  0  0  0  0  0  0
   11.8527   -2.5051   21.7765 C   0  0  0  0  0  0  0  0  0  0  0  0
   12.5849   -1.5122   22.5970 C   0  0  0  0  0  0  0  0  0  0  0  0
   13.8299    0.5332   23.1105 C   0  0  0  0  0  0  0  0  0  0  0  0
   13.8290    0.5335   23.1092 C   0  0  0  0  0  0  0  0  0  0  0  0
   13.2629    1.8825   23.1666 C   0  0  0  0  0  0  0  0  0  0  0  0
   11.8756   -0.7501   23.4275 C   0  0  0  0  0  0  0  0  0  0  0  0
   10.9116    0.0123   23.7972 C   0  0  0  0  0  0  0  0  0  0  0  0
    8.4502   -2.8846   24.7968 C   0  0  0  0  0  0  0  0  0  0  0  0
    9.5078   -3.5185   26.1702 C   0  0  0  0  0  0  0  0  0  0  0  0
    8.4584   -7.2773   28.9704 H   0  0  0  0  0  0  0  0  0  0  0  0
    8.7820   -7.1408   27.2366 H   0  0  0  0  0  0  0  0  0  0  0  0
    7.3513   -6.3624   27.9377 H   0  0  0  0  0  0  0  0  0  0  0  0
    8.8657   -4.9921   29.4138 H   0  0  0  0  0  0  0  0  0  0  0  0
   11.2930   -4.6584   28.6741 H   0  0  0  0  0  0  0  0  0  0  0  0
   11.1426   -6.1406   27.6920 H   0  0  0  0  0  0  0  0  0  0  0  0
   10.9129   -6.2077   29.4201 H   0  0  0  0  0  0  0  0  0  0  0  0
    7.7525   -4.1479   27.3820 H   0  0  0  0  0  0  0  0  0  0  0  0
   10.2270   -4.8596   25.8431 H   0  0  0  0  0  0  0  0  0  0  0  0
   10.8373   -3.8980   25.3938 H   0  0  0  0  0  0  0  0  0  0  0  0
    9.1808   -3.5405   24.1381 H   0  0  0  0  0  0  0  0  0  0  0  0
    7.5215   -4.6816   25.1231 H   0  0  0  0  0  0  0  0  0  0  0  0
    8.0214   -0.9731   21.3731 H   0  0  0  0  0  0  0  0  0  0  0  0
    9.3491   -0.6252   23.4442 H   0  0  0  0  0  0  0  0  0  0  0  0
    9.9414   -2.2717   22.2446 H   0  0  0  0  0  0  0  0  0  0  0  0
   12.5688   -3.1905   21.2931 H   0  0  0  0  0  0  0  0  0  0  0  0
   13.8216   -0.6565   22.7252 H   0  0  0  0  0  0  0  0  0  0  0  0
   14.1692    2.1630   22.7871 H   0  0  0  0  0  0  0  0  0  0  0  0
   12.5802    2.0073   23.9544 H   0  0  0  0  0  0  0  0  0  0  0  0
   11.2215    0.9574   24.2699 H   0  0  0  0  0  0  0  0  0  0  0  0
    8.2190   -2.0262   26.9582 H   0  0  0  0  0  0  0  0  0  0  0  0
    7.8655   -1.6997   26.4035 H   0  0  0  0  0  0  0  0  0  0  0  0
    8.9428   -3.1998   28.1848 H   0  0  0  0  0  0  0  0  0  0  0  0
   10.2828   -2.6479   26.6956 H   0  0  0  0  0  0  0  0  0  0  0  0
  1  2  1  0
  2  3  1  0
  2  4  1  0
  4  5  1  0
  5  6  1  0
  6  7  1  0
  7  8  1  0
  8  9  2  0
  8 10  1  0
 10 11  1  0
 11 12  2  0
 12 13  1  0
 13 14  2  0
 14 15  1  0
 15 16  2  0
 16 17  1  0
 17 18  2  0
 18 19  1  0
 19 20  2  0
  7 21  1  0
 21 22  1  0
 22  4  1  0
 20 11  1  0
 20 15  1  0
  1 23  1  0
  1 24  1  0
  1 25  1  0
  2 26  1  0
  3 27  1  0
  3 28  1  0
  3 29  1  0
  4 30  1  0
  5 31  1  0
  5 32  1  0
  6 33  1  0
  6 34  1  0
 10 35  1  0
 10 36  1  0
 12 37  1  0
 14 38  1  0
 16 39  1  0
 17 40  1  0
 18 41  1  0
 19 42  1  0
 21 43  1  0
 21 44  1  0
 22 45  1  0
 22 46  1  0
M  END
$$$$
