
     RDKit          3D

 64 68  0  0  0  0  0  0  0  0999 V2000
   -7.0184    3.6115  -22.4546 C   0  0  0  0  0  0  0  0  0  0  0  0
   -7.7049    2.6071  -23.2337 N   0  0  0  0  0  0  0  0  0  0  0  0
   -7.4604    2.5308  -24.5551 C   0  0  0  0  0  0  0  0  0  0  0  0
   -6.6981    3.2876  -25.1500 O   0  0  0  0  0  0  0  0  0  0  0  0
   -8.1599    1.4194  -25.3425 C   0  0  0  0  0  0  0  0  0  0  0  0
   -8.9819    0.5094  -24.5780 N   0  0  0  0  0  0  0  0  0  0  0  0
   -8.4978   -0.8335  -24.3101 C   0  0  0  0  0  0  0  0  0  0  0  0
   -9.0530   -1.3819  -22.9655 C   0  0  2  0  0  0  0  0  0  0  0  0
   -8.4607   -0.5348  -21.8053 C   0  0  0  0  0  0  0  0  0  0  0  0
   -8.7428    0.6072  -21.5040 O   0  0  0  0  0  0  0  0  0  0  0  0
   -7.5032   -1.2782  -21.1596 N   0  0  0  0  0  0  0  0  0  0  0  0
   -6.6595   -0.7807  -20.1326 C   0  0  0  0  0  0  0  0  0  0  0  0
   -6.8666   -1.1817  -18.8365 C   0  0  0  0  0  0  0  0  0  0  0  0
   -6.0843   -0.8244  -17.7905 N   0  0  0  0  0  0  0  0  0  0  0  0
   -5.0549   -0.0516  -18.0321 C   0  0  0  0  0  0  0  0  0  0  0  0
   -4.7312    0.4447  -19.3272 C   0  0  0  0  0  0  0  0  0  0  0  0
   -3.6381    1.3235  -19.5370 C   0  0  0  0  0  0  0  0  0  0  0  0
   -3.3152    1.7469  -20.7943 C   0  0  0  0  0  0  0  0  0  0  0  0
   -4.0591    1.2913  -21.9046 C   0  0  0  0  0  0  0  0  0  0  0  0
   -5.1381    0.4583  -21.7315 C   0  0  0  0  0  0  0  0  0  0  0  0
   -5.5246    0.0400  -20.4260 C   0  0  0  0  0  0  0  0  0  0  0  0
   -7.2082   -2.5278  -21.8172 C   0  0  0  0  0  0  0  0  0  0  0  0
   -8.4871   -2.7721  -22.6146 C   0  0  2  0  0  0  0  0  0  0  0  0
   -8.2938   -3.7151  -23.7908 C   0  0  0  0  0  0  0  0  0  0  0  0
   -7.7329   -5.2769  -23.1617 S   0  0  0  0  0  0  0  0  0  0  0  0
   -8.5524   -5.6611  -22.0277 O   0  0  0  0  0  0  0  0  0  0  0  0
   -6.2866   -5.1943  -23.0012 O   0  0  0  0  0  0  0  0  0  0  0  0
   -8.1524   -6.2553  -24.4417 N   0  0  0  0  0  0  0  0  0  0  0  0
   -7.2547   -6.2481  -25.5911 C   0  0  0  0  0  0  0  0  0  0  0  0
  -10.5690   -1.2905  -23.0533 C   0  0  0  0  0  0  0  0  0  0  0  0
  -11.4662   -2.2839  -22.6214 C   0  0  0  0  0  0  0  0  0  0  0  0
  -12.8248   -2.0215  -22.6091 C   0  0  0  0  0  0  0  0  0  0  0  0
  -13.6641   -2.9564  -22.1197 F   0  0  0  0  0  0  0  0  0  0  0  0
  -13.3578   -0.8264  -23.0832 C   0  0  0  0  0  0  0  0  0  0  0  0
  -12.4857    0.1255  -23.5767 C   0  0  0  0  0  0  0  0  0  0  0  0
  -11.1117   -0.1128  -23.5900 C   0  0  0  0  0  0  0  0  0  0  0  0
  -10.2452    0.9163  -24.2502 C   0  0  0  0  0  0  0  0  0  0  0  0
  -10.6471    2.0491  -24.4826 O   0  0  0  0  0  0  0  0  0  0  0  0
   -7.4021    4.6185  -22.6615 H   0  0  0  0  0  0  0  0  0  0  0  0
   -5.9496    3.5972  -22.7020 H   0  0  0  0  0  0  0  0  0  0  0  0
   -7.1634    3.3846  -21.3935 H   0  0  0  0  0  0  0  0  0  0  0  0
   -8.2679    1.9184  -22.7401 H   0  0  0  0  0  0  0  0  0  0  0  0
   -8.7679    1.8958  -26.1173 H   0  0  0  0  0  0  0  0  0  0  0  0
   -7.3808    0.8471  -25.8597 H   0  0  0  0  0  0  0  0  0  0  0  0
   -8.7939   -1.4992  -25.1346 H   0  0  0  0  0  0  0  0  0  0  0  0
   -7.4008   -0.7983  -24.2723 H   0  0  0  0  0  0  0  0  0  0  0  0
   -7.7078   -1.8303  -18.5941 H   0  0  0  0  0  0  0  0  0  0  0  0
   -4.4233    0.2297  -17.1872 H   0  0  0  0  0  0  0  0  0  0  0  0
   -3.0876    1.6683  -18.6686 H   0  0  0  0  0  0  0  0  0  0  0  0
   -2.4962    2.4446  -20.9475 H   0  0  0  0  0  0  0  0  0  0  0  0
   -3.7923    1.6262  -22.9024 H   0  0  0  0  0  0  0  0  0  0  0  0
   -5.6999    0.1177  -22.5985 H   0  0  0  0  0  0  0  0  0  0  0  0
   -6.3251   -2.4478  -22.4683 H   0  0  0  0  0  0  0  0  0  0  0  0
   -7.0241   -3.3260  -21.0981 H   0  0  0  0  0  0  0  0  0  0  0  0
   -9.1776   -3.2277  -21.9001 H   0  0  0  0  0  0  0  0  0  0  0  0
   -9.2377   -3.8658  -24.3256 H   0  0  0  0  0  0  0  0  0  0  0  0
   -7.5173   -3.3564  -24.4817 H   0  0  0  0  0  0  0  0  0  0  0  0
   -8.4489   -7.1573  -24.0885 H   0  0  0  0  0  0  0  0  0  0  0  0
   -6.1962   -6.3041  -25.3043 H   0  0  0  0  0  0  0  0  0  0  0  0
   -7.5250   -7.0977  -26.2164 H   0  0  0  0  0  0  0  0  0  0  0  0
   -7.4272   -5.3434  -26.1844 H   0  0  0  0  0  0  0  0  0  0  0  0
  -11.1401   -3.2498  -22.2519 H   0  0  0  0  0  0  0  0  0  0  0  0
  -14.4304   -0.6608  -23.0441 H   0  0  0  0  0  0  0  0  0  0  0  0
  -12.8530    1.0613  -23.9881 H   0  0  0  0  0  0  0  0  0  0  0  0
  1  2  1  0
  2  3  1  0
  3  4  2  0
  3  5  1  0
  5  6  1  0
  6  7  1  0
  8  7  1  6
  8  9  1  0
  9 10  2  0
  9 11  1  0
 11 12  1  0
 12 13  2  0
 13 14  1  0
 14 15  2  0
 15 16  1  0
 16 17  2  0
 17 18  1  0
 18 19  2  0
 19 20  1  0
 20 21  2  0
 11 22  1  0
 22 23  1  0
 23 24  1  0
 24 25  1  0
 25 26  2  0
 25 27  2  0
 25 28  1  0
 28 29  1  0
  8 30  1  0
 30 31  2  0
 31 32  1  0
 32 33  1  0
 32 34  2  0
 34 35  1  0
 35 36  2  0
 36 37  1  0
 37 38  2  0
 37  6  1  0
 23  8  1  0
 36 30  1  0
 21 12  1  0
 21 16  1  0
  1 39  1  0
  1 40  1  0
  1 41  1  0
  2 42  1  0
  5 43  1  0
  5 44  1  0
  7 45  1  0
  7 46  1  0
 13 47  1  0
 15 48  1  0
 17 49  1  0
 18 50  1  0
 19 51  1  0
 20 52  1  0
 22 53  1  0
 22 54  1  0
 23 55  1  1
 24 56  1  0
 24 57  1  0
 28 58  1  0
 29 59  1  0
 29 60  1  0
 29 61  1  0
 31 62  1  0
 34 63  1  0
 35 64  1  0
M  END
