
     RDKit          3D

 70 75  0  0  0  0  0  0  0  0999 V2000
   -8.4234    2.4900  -26.5812 O   0  0  0  0  0  0  0  0  0  0  0  0
   -7.7565    2.0417  -25.6640 C   0  0  0  0  0  0  0  0  0  0  0  0
   -7.4833    0.5472  -25.5005 C   0  0  0  0  0  0  0  0  0  0  0  0
   -8.3844   -0.0635  -24.4900 N   0  0  1  0  0  0  0  0  0  0  0  0
   -9.8264    0.0967  -24.9043 C   0  0  0  0  0  0  0  0  0  0  0  0
  -10.7791   -0.6440  -24.0014 C   0  0  0  0  0  0  0  0  0  0  0  0
  -12.1348   -0.3274  -24.0515 C   0  0  0  0  0  0  0  0  0  0  0  0
  -13.0732   -1.0853  -23.3676 C   0  0  0  0  0  0  0  0  0  0  0  0
  -12.6340   -2.1909  -22.6474 C   0  0  0  0  0  0  0  0  0  0  0  0
  -13.8052   -3.1832  -21.8227 Cl  0  0  0  0  0  0  0  0  0  0  0  0
  -11.2831   -2.5074  -22.5664 C   0  0  0  0  0  0  0  0  0  0  0  0
  -10.3382   -1.7002  -23.2008 C   0  0  0  0  0  0  0  0  0  0  0  0
   -8.8524   -1.9338  -23.0153 C   0  0  2  0  0  0  0  0  0  0  0  0
   -8.2296   -1.0622  -21.9188 C   0  0  0  0  0  0  0  0  0  0  0  0
   -8.5190    0.1132  -21.7739 O   0  0  0  0  0  0  0  0  0  0  0  0
   -7.1911   -1.6592  -21.2451 N   0  0  0  0  0  0  0  0  0  0  0  0
   -6.4831   -1.0309  -20.1793 C   0  0  0  0  0  0  0  0  0  0  0  0
   -6.8885   -1.2223  -18.8842 C   0  0  0  0  0  0  0  0  0  0  0  0
   -6.2340   -0.7576  -17.7928 N   0  0  0  0  0  0  0  0  0  0  0  0
   -5.1658   -0.0272  -17.9925 C   0  0  0  0  0  0  0  0  0  0  0  0
   -4.6692    0.3102  -19.2827 C   0  0  0  0  0  0  0  0  0  0  0  0
   -3.5604    1.1794  -19.4551 C   0  0  0  0  0  0  0  0  0  0  0  0
   -3.0840    1.4558  -20.7083 C   0  0  0  0  0  0  0  0  0  0  0  0
   -3.6911    0.8698  -21.8435 C   0  0  0  0  0  0  0  0  0  0  0  0
   -4.7847    0.0499  -21.7024 C   0  0  0  0  0  0  0  0  0  0  0  0
   -5.3205   -0.2297  -20.4157 C   0  0  0  0  0  0  0  0  0  0  0  0
   -8.0947   -1.5196  -24.2767 C   0  0  0  0  0  0  0  0  0  0  0  0
   -7.1981    2.8218  -24.6862 N   0  0  0  0  0  0  0  0  0  0  0  0
   -7.2919    4.2293  -24.6356 C   0  0  0  0  0  0  0  0  0  0  0  0
   -8.4736    4.8903  -24.9647 C   0  0  0  0  0  0  0  0  0  0  0  0
   -8.5484    6.2688  -24.8887 C   0  0  0  0  0  0  0  0  0  0  0  0
   -7.4337    7.0189  -24.5081 C   0  0  0  0  0  0  0  0  0  0  0  0
   -7.5163    8.4277  -24.4733 N   0  0  0  0  0  0  0  0  0  0  0  0
   -6.6147    9.1569  -23.5976 C   0  0  0  0  0  0  0  0  0  0  0  0
   -7.2195   10.5062  -23.2423 C   0  0  0  0  0  0  0  0  0  0  0  0
   -7.6087   11.2164  -24.3947 O   0  0  0  0  0  0  0  0  0  0  0  0
   -8.6128   10.5439  -25.1040 C   0  0  0  0  0  0  0  0  0  0  0  0
   -8.3068    9.0856  -25.3886 C   0  0  0  0  0  0  0  0  0  0  0  0
   -8.8175    8.5489  -26.3559 O   0  0  0  0  0  0  0  0  0  0  0  0
   -6.2659    6.3509  -24.1254 C   0  0  0  0  0  0  0  0  0  0  0  0
   -6.1971    4.9679  -24.1932 C   0  0  0  0  0  0  0  0  0  0  0  0
   -6.4396    0.3695  -25.2113 H   0  0  0  0  0  0  0  0  0  0  0  0
   -7.6398    0.0788  -26.4772 H   0  0  0  0  0  0  0  0  0  0  0  0
   -8.3113    0.4305  -23.5713 H   0  0  0  0  0  0  0  0  0  0  0  0
   -9.9348   -0.2677  -25.9343 H   0  0  0  0  0  0  0  0  0  0  0  0
  -10.0776    1.1607  -24.9359 H   0  0  0  0  0  0  0  0  0  0  0  0
  -12.4567    0.5202  -24.6521 H   0  0  0  0  0  0  0  0  0  0  0  0
  -14.1302   -0.8422  -23.4065 H   0  0  0  0  0  0  0  0  0  0  0  0
  -10.9685   -3.3748  -21.9924 H   0  0  0  0  0  0  0  0  0  0  0  0
   -8.6601   -2.9813  -22.7695 H   0  0  0  0  0  0  0  0  0  0  0  0
   -6.9295   -2.6053  -21.4861 H   0  0  0  0  0  0  0  0  0  0  0  0
   -7.7964   -1.7894  -18.6900 H   0  0  0  0  0  0  0  0  0  0  0  0
   -4.6461    0.3411  -17.1081 H   0  0  0  0  0  0  0  0  0  0  0  0
   -3.1296    1.6308  -18.5660 H   0  0  0  0  0  0  0  0  0  0  0  0
   -2.2481    2.1384  -20.8386 H   0  0  0  0  0  0  0  0  0  0  0  0
   -3.2916    1.0747  -22.8326 H   0  0  0  0  0  0  0  0  0  0  0  0
   -5.2572   -0.3998  -22.5707 H   0  0  0  0  0  0  0  0  0  0  0  0
   -8.4242   -2.0909  -25.1497 H   0  0  0  0  0  0  0  0  0  0  0  0
   -7.0155   -1.6711  -24.1648 H   0  0  0  0  0  0  0  0  0  0  0  0
   -6.5556    2.3904  -24.0363 H   0  0  0  0  0  0  0  0  0  0  0  0
   -9.3303    4.3227  -25.3095 H   0  0  0  0  0  0  0  0  0  0  0  0
   -9.4776    6.7535  -25.1605 H   0  0  0  0  0  0  0  0  0  0  0  0
   -6.4595    8.5615  -22.6951 H   0  0  0  0  0  0  0  0  0  0  0  0
   -5.6400    9.2818  -24.0801 H   0  0  0  0  0  0  0  0  0  0  0  0
   -8.0764   10.3549  -22.5726 H   0  0  0  0  0  0  0  0  0  0  0  0
   -6.4870   11.1255  -22.7221 H   0  0  0  0  0  0  0  0  0  0  0  0
   -8.7109   11.0355  -26.0670 H   0  0  0  0  0  0  0  0  0  0  0  0
   -9.6001   10.6018  -24.6115 H   0  0  0  0  0  0  0  0  0  0  0  0
   -5.3969    6.8971  -23.7690 H   0  0  0  0  0  0  0  0  0  0  0  0
   -5.2809    4.4582  -23.9015 H   0  0  0  0  0  0  0  0  0  0  0  0
  1  2  2  0
  2  3  1  0
  3  4  1  0
  4  5  1  0
  5  6  1  0
  6  7  2  0
  7  8  1  0
  8  9  2  0
  9 10  1  0
  9 11  1  0
 11 12  2  0
 12 13  1  0
 13 14  1  0
 14 15  2  0
 14 16  1  0
 16 17  1  0
 17 18  2  0
 18 19  1  0
 19 20  2  0
 20 21  1  0
 21 22  2  0
 22 23  1  0
 23 24  2  0
 24 25  1  0
 25 26  2  0
 13 27  1  0
  2 28  1  0
 28 29  1  0
 29 30  2  0
 30 31  1  0
 31 32  2  0
 32 33  1  0
 33 34  1  0
 34 35  1  0
 35 36  1  0
 36 37  1  0
 37 38  1  0
 38 39  2  0
 32 40  1  0
 40 41  2  0
 27  4  1  0
 41 29  1  0
 12  6  1  0
 26 17  1  0
 38 33  1  0
 26 21  1  0
  3 42  1  0
  3 43  1  0
  4 44  1  1
  5 45  1  0
  5 46  1  0
  7 47  1  0
  8 48  1  0
 11 49  1  0
 13 50  1  1
 16 51  1  0
 18 52  1  0
 20 53  1  0
 22 54  1  0
 23 55  1  0
 24 56  1  0
 25 57  1  0
 27 58  1  0
 27 59  1  0
 28 60  1  0
 30 61  1  0
 31 62  1  0
 34 63  1  0
 34 64  1  0
 35 65  1  0
 35 66  1  0
 37 67  1  0
 37 68  1  0
 40 69  1  0
 41 70  1  0
M  CHG  1   4   1
M  END
