mobile
  PyMOL3.1          3D                             0

 52 55  0  0  0  0  0  0  0  0999 V2000
  -13.8056   -2.8534  -21.4487 Cl  0  0  0  0  0  0  0  0  0  0  0  0
  -12.6460   -1.9787  -22.4153 C   0  0  0  0  0  0  0  0  0  0  0  0
  -11.3071   -2.3265  -22.3461 C   0  0  0  0  0  0  0  0  0  0  0  0
  -13.0838   -0.9683  -23.2382 C   0  0  0  0  0  0  0  0  0  0  0  0
  -12.1708   -0.3141  -24.0415 C   0  0  0  0  0  0  0  0  0  0  0  0
  -10.8152   -0.6368  -24.0053 C   0  0  0  0  0  0  0  0  0  0  0  0
   -9.8793    0.0880  -24.9473 C   0  0  0  0  0  0  0  0  0  0  0  0
   -8.4811   -0.1099  -24.5522 N   0  0  0  0  0  0  0  0  0  0  0  0
   -7.3623    0.8476  -25.1846 S   0  0  0  0  0  0  0  0  0  0  0  0
   -6.0965    0.4238  -24.6962 O   0  0  0  0  0  0  0  0  0  0  0  0
   -7.6085    0.9268  -26.5849 O   0  0  0  0  0  0  0  0  0  0  0  0
   -7.7216    2.2619  -24.5337 N   0  0  0  0  0  0  0  0  0  0  0  0
   -7.6072    2.4577  -23.0744 C   0  0  0  0  0  0  0  0  0  0  0  0
   -6.5817    3.4598  -22.7377 C   0  0  0  0  0  0  0  0  0  0  0  0
   -5.8058    4.2405  -22.4328 N   0  0  0  0  0  0  0  0  0  0  0  0
   -7.6549    3.4611  -25.3763 C   0  0  0  0  0  0  0  0  0  0  0  0
  -10.3735   -1.6382  -23.1255 C   0  0  0  0  0  0  0  0  0  0  0  0
   -8.8850   -1.9140  -22.9769 C   0  0  0  0  0  0  0  0  0  0  0  0
   -8.1340   -1.5101  -24.2472 C   0  0  0  0  0  0  0  0  0  0  0  0
   -8.3581   -1.0881  -21.7993 C   0  0  0  0  0  0  0  0  0  0  0  0
   -8.9507   -0.0929  -21.3821 O   0  0  0  0  0  0  0  0  0  0  0  0
   -7.1963   -1.5384  -21.2593 N   0  0  0  0  0  0  0  0  0  0  0  0
   -6.4918   -1.0111  -20.1495 C   0  0  0  0  0  0  0  0  0  0  0  0
   -5.3386   -0.1935  -20.3793 C   0  0  0  0  0  0  0  0  0  0  0  0
   -4.7623    0.0186  -21.6585 C   0  0  0  0  0  0  0  0  0  0  0  0
   -3.6783    0.8361  -21.8143 C   0  0  0  0  0  0  0  0  0  0  0  0
   -3.1133    1.4798  -20.7215 C   0  0  0  0  0  0  0  0  0  0  0  0
   -3.6252    1.3034  -19.4688 C   0  0  0  0  0  0  0  0  0  0  0  0
   -4.7401    0.4557  -19.2590 C   0  0  0  0  0  0  0  0  0  0  0  0
   -5.2994    0.2132  -17.9780 C   0  0  0  0  0  0  0  0  0  0  0  0
   -6.3515   -0.5664  -17.7612 N   0  0  0  0  0  0  0  0  0  0  0  0
   -6.9240   -1.1479  -18.8271 C   0  0  0  0  0  0  0  0  0  0  0  0
  -10.9865   -3.1240  -21.6932 H   0  0  0  0  0  0  0  0  0  0  0  0
  -14.1281   -0.6905  -23.2568 H   0  0  0  0  0  0  0  0  0  0  0  0
  -12.5135    0.4614  -24.7103 H   0  0  0  0  0  0  0  0  0  0  0  0
  -10.0234   -0.2991  -25.9671 H   0  0  0  0  0  0  0  0  0  0  0  0
  -10.1100    1.1637  -24.9286 H   0  0  0  0  0  0  0  0  0  0  0  0
   -8.5775    2.7950  -22.6836 H   0  0  0  0  0  0  0  0  0  0  0  0
   -7.3356    1.4997  -22.6071 H   0  0  0  0  0  0  0  0  0  0  0  0
   -7.9293    4.3439  -24.7814 H   0  0  0  0  0  0  0  0  0  0  0  0
   -6.6312    3.5818  -25.7610 H   0  0  0  0  0  0  0  0  0  0  0  0
   -8.3530    3.3562  -26.2200 H   0  0  0  0  0  0  0  0  0  0  0  0
   -8.7239   -2.9836  -22.7777 H   0  0  0  0  0  0  0  0  0  0  0  0
   -8.4336   -2.1606  -25.0817 H   0  0  0  0  0  0  0  0  0  0  0  0
   -7.0499   -1.5994  -24.0837 H   0  0  0  0  0  0  0  0  0  0  0  0
   -6.7888   -2.3396  -21.6972 H   0  0  0  0  0  0  0  0  0  0  0  0
   -5.1867   -0.4732  -22.5213 H   0  0  0  0  0  0  0  0  0  0  0  0
   -3.2567    0.9827  -22.7970 H   0  0  0  0  0  0  0  0  0  0  0  0
   -2.2602    2.1261  -20.8635 H   0  0  0  0  0  0  0  0  0  0  0  0
   -3.1761    1.8145  -18.6299 H   0  0  0  0  0  0  0  0  0  0  0  0
   -4.8405    0.6928  -17.1255 H   0  0  0  0  0  0  0  0  0  0  0  0
   -7.7884   -1.7710  -18.6486 H   0  0  0  0  0  0  0  0  0  0  0  0
  1  2  1  0  0  0  0
  2  3  4  0  0  0  0
  2  4  4  0  0  0  0
  3 17  4  0  0  0  0
  3 33  1  0  0  0  0
  4  5  4  0  0  0  0
  4 34  1  0  0  0  0
  5  6  4  0  0  0  0
  5 35  1  0  0  0  0
  6  7  1  0  0  0  0
  6 17  4  0  0  0  0
  7  8  1  0  0  0  0
  7 36  1  0  0  0  0
  7 37  1  0  0  0  0
  8  9  1  0  0  0  0
  8 19  1  0  0  0  0
  9 10  2  0  0  0  0
  9 11  2  0  0  0  0
  9 12  1  0  0  0  0
 12 13  1  0  0  0  0
 12 16  1  0  0  0  0
 13 14  1  0  0  0  0
 13 38  1  0  0  0  0
 13 39  1  0  0  0  0
 14 15  3  0  0  0  0
 16 40  1  0  0  0  0
 16 41  1  0  0  0  0
 16 42  1  0  0  0  0
 17 18  1  0  0  0  0
 18 19  1  0  0  0  0
 18 20  1  0  0  0  0
 18 43  1  0  0  0  0
 19 44  1  0  0  0  0
 19 45  1  0  0  0  0
 20 21  2  0  0  0  0
 20 22  1  0  0  0  0
 22 23  1  0  0  0  0
 22 46  1  0  0  0  0
 23 24  4  0  0  0  0
 23 32  4  0  0  0  0
 24 25  4  0  0  0  0
 24 29  4  0  0  0  0
 25 26  4  0  0  0  0
 25 47  1  0  0  0  0
 26 27  4  0  0  0  0
 26 48  1  0  0  0  0
 27 28  4  0  0  0  0
 27 49  1  0  0  0  0
 28 29  4  0  0  0  0
 28 50  1  0  0  0  0
 29 30  4  0  0  0  0
 30 31  4  0  0  0  0
 30 51  1  0  0  0  0
 31 32  4  0  0  0  0
 32 52  1  0  0  0  0
M  END
$$$$
