LIG(A-306)
     RDKit          3D

 32 35  0  0  1  0  0  0  0  0999 V2000
   14.1026   -1.6691   21.3006 Cl  0  0  0  0  0  0  0  0  0  0  0  0
   12.9301   -0.8180   22.2735 C   0  0  0  0  0  0  0  0  0  0  0  0
   11.6025   -1.2070   22.2308 C   0  0  0  0  0  0  0  0  0  0  0  0
   13.3499    0.2186   23.0740 C   0  0  0  0  0  0  0  0  0  0  0  0
   12.4290    0.8557   23.8828 C   0  0  0  0  0  0  0  0  0  0  0  0
   11.0829    0.4906   23.8723 C   0  0  0  0  0  0  0  0  0  0  0  0
   10.1393    1.1991   24.8182 C   0  0  0  0  0  0  0  0  0  0  0  0
    8.7419    0.9504   24.4473 N   0  0  0  0  0  0  0  0  0  0  0  0
    7.6035    1.8813   25.0847 S   0  0  0  0  0  0  0  0  0  0  0  0
    6.3450    1.4113   24.6215 O   0  0  0  0  0  0  0  0  0  0  0  0
    7.8680    1.9888   26.4788 O   0  0  0  0  0  0  0  0  0  0  0  0
    7.9063    3.2965   24.4076 N   0  0  0  0  0  0  0  0  0  0  0  0
    7.7643    3.4663   22.9475 C   0  0  0  0  0  0  0  0  0  0  0  0
    6.7010    4.4317   22.6127 C   0  0  0  0  0  0  0  0  0  0  0  0
    5.8981    5.1821   22.3080 N   0  0  0  0  0  0  0  0  0  0  0  0
    7.8147    4.5054   25.2341 C   0  0  0  0  0  0  0  0  0  0  0  0
   10.6594   -0.5384   23.0146 C   0  0  0  0  0  0  0  0  0  0  0  0
    9.1785   -0.8630   22.8935 C   0  0  1  0  0  0  0  0  0  0  0  0
    8.4343   -0.4644   24.1690 C   0  0  0  0  0  0  0  0  0  0  0  0
    8.6076   -0.0729   21.7113 C   0  0  0  0  0  0  0  0  0  0  0  0
    9.1622    0.9355   21.2705 O   0  0  0  0  0  0  0  0  0  0  0  0
    7.4519   -0.5676   21.1968 N   0  0  0  0  0  0  0  0  0  0  0  0
    6.7153   -0.0784   20.0905 C   0  0  0  0  0  0  0  0  0  0  0  0
    5.5408    0.7053   20.3268 C   0  0  0  0  0  0  0  0  0  0  0  0
    4.9779    0.9178   21.6117 C   0  0  0  0  0  0  0  0  0  0  0  0
    3.8702    1.7027   21.7727 C   0  0  0  0  0  0  0  0  0  0  0  0
    3.2683    2.3113   20.6793 C   0  0  0  0  0  0  0  0  0  0  0  0
    3.7653    2.1325   19.4218 C   0  0  0  0  0  0  0  0  0  0  0  0
    4.9050    1.3187   19.2058 C   0  0  0  0  0  0  0  0  0  0  0  0
    5.4512    1.0744   17.9205 C   0  0  0  0  0  0  0  0  0  0  0  0
    6.5250    0.3246   17.6983 N   0  0  0  0  0  0  0  0  0  0  0  0
    7.1314   -0.2213   18.7643 C   0  0  0  0  0  0  0  0  0  0  0  0
  1  2  1  0
  2  3  2  0
  2  4  1  0
  3 17  1  0
  4  5  2  0
  5  6  1  0
  6  7  1  0
  6 17  2  0
  7  8  1  0
  8  9  1  0
  8 19  1  0
  9 10  2  0
  9 11  2  0
  9 12  1  0
 12 13  1  0
 12 16  1  0
 13 14  1  0
 14 15  3  0
 17 18  1  0
 18 19  1  0
 18 20  1  6
 20 21  2  0
 20 22  1  0
 22 23  1  0
 23 24  1  0
 23 32  2  0
 24 25  2  0
 24 29  1  0
 25 26  1  0
 26 27  2  0
 27 28  1  0
 28 29  2  0
 29 30  1  0
 30 31  2  0
 31 32  1  0
M  END
$$$$
