
     RDKit          3D

 66 71  0  0  0  0  0  0  0  0999 V2000
   -8.4219   -3.8242  -23.7076 C   0  0  0  0  0  0  0  0  0  0  0  0
   -8.5257   -2.8279  -22.5607 C   0  0  1  0  0  0  0  0  0  0  0  0
   -7.2192   -2.5708  -21.8041 C   0  0  0  0  0  0  0  0  0  0  0  0
   -7.5040   -1.3225  -21.1333 N   0  0  0  0  0  0  0  0  0  0  0  0
   -6.6504   -0.8135  -20.1229 C   0  0  0  0  0  0  0  0  0  0  0  0
   -6.8719   -1.1705  -18.8166 C   0  0  0  0  0  0  0  0  0  0  0  0
   -6.1006   -0.7816  -17.7725 N   0  0  0  0  0  0  0  0  0  0  0  0
   -5.0767   -0.0042  -18.0219 C   0  0  0  0  0  0  0  0  0  0  0  0
   -4.7512    0.4640  -19.3269 C   0  0  0  0  0  0  0  0  0  0  0  0
   -3.6675    1.3537  -19.5388 C   0  0  0  0  0  0  0  0  0  0  0  0
   -3.3361    1.7650  -20.7985 C   0  0  0  0  0  0  0  0  0  0  0  0
   -4.0766    1.3015  -21.9072 C   0  0  0  0  0  0  0  0  0  0  0  0
   -5.1562    0.4692  -21.7279 C   0  0  0  0  0  0  0  0  0  0  0  0
   -5.5318    0.0312  -20.4241 C   0  0  0  0  0  0  0  0  0  0  0  0
   -8.4529   -0.5659  -21.7914 C   0  0  0  0  0  0  0  0  0  0  0  0
   -8.7335    0.5797  -21.5153 O   0  0  0  0  0  0  0  0  0  0  0  0
   -9.0580   -1.4220  -22.9342 C   0  0  1  0  0  0  0  0  0  0  0  0
   -8.5073   -0.8863  -24.2760 C   0  0  0  0  0  0  0  0  0  0  0  0
   -8.9748    0.4713  -24.5393 N   0  0  0  0  0  0  0  0  0  0  0  0
   -8.1257    1.3370  -25.3404 C   0  0  0  0  0  0  0  0  0  0  0  0
   -7.4209    2.4581  -24.5718 C   0  0  0  0  0  0  0  0  0  0  0  0
   -8.3387    3.5926  -24.2034 N   0  0  0  0  0  0  0  0  0  0  0  0
   -7.6750    4.5973  -23.3056 C   0  0  0  0  0  0  0  0  0  0  0  0
   -6.7594    5.5311  -24.1069 C   0  0  0  0  0  0  0  0  0  0  0  0
   -7.4580    6.2087  -25.1331 O   0  0  0  0  0  0  0  0  0  0  0  0
   -8.0401    5.2942  -26.0375 C   0  0  0  0  0  0  0  0  0  0  0  0
   -8.9986    4.3567  -25.3280 C   0  0  0  0  0  0  0  0  0  0  0  0
  -10.2069    0.8996  -24.1686 C   0  0  0  0  0  0  0  0  0  0  0  0
  -10.5683    2.0830  -24.2534 O   0  0  0  0  0  0  0  0  0  0  0  0
  -11.1125   -0.1423  -23.6011 C   0  0  0  0  0  0  0  0  0  0  0  0
  -12.4837    0.1092  -23.5945 C   0  0  0  0  0  0  0  0  0  0  0  0
  -13.3568   -0.8150  -23.0519 C   0  0  0  0  0  0  0  0  0  0  0  0
  -12.8233   -1.9958  -22.5330 C   0  0  0  0  0  0  0  0  0  0  0  0
  -13.8721   -3.1440  -21.7415 Cl  0  0  0  0  0  0  0  0  0  0  0  0
  -11.4675   -2.2745  -22.5728 C   0  0  0  0  0  0  0  0  0  0  0  0
  -10.5704   -1.3086  -23.0411 C   0  0  0  0  0  0  0  0  0  0  0  0
   -8.1315   -4.8202  -23.3627 H   0  0  0  0  0  0  0  0  0  0  0  0
   -9.3760   -3.9204  -24.2378 H   0  0  0  0  0  0  0  0  0  0  0  0
   -7.6673   -3.5119  -24.4372 H   0  0  0  0  0  0  0  0  0  0  0  0
   -9.2245   -3.2049  -21.8079 H   0  0  0  0  0  0  0  0  0  0  0  0
   -6.9698   -3.3465  -21.0757 H   0  0  0  0  0  0  0  0  0  0  0  0
   -6.3611   -2.4719  -22.4889 H   0  0  0  0  0  0  0  0  0  0  0  0
   -7.7432   -1.7706  -18.5562 H   0  0  0  0  0  0  0  0  0  0  0  0
   -4.4607    0.3185  -17.1771 H   0  0  0  0  0  0  0  0  0  0  0  0
   -3.1207    1.7075  -18.6717 H   0  0  0  0  0  0  0  0  0  0  0  0
   -2.5166    2.4619  -20.9505 H   0  0  0  0  0  0  0  0  0  0  0  0
   -3.7889    1.6134  -22.9060 H   0  0  0  0  0  0  0  0  0  0  0  0
   -5.7351    0.1530  -22.5920 H   0  0  0  0  0  0  0  0  0  0  0  0
   -7.4139   -0.8592  -24.2399 H   0  0  0  0  0  0  0  0  0  0  0  0
   -8.8145   -1.5603  -25.0879 H   0  0  0  0  0  0  0  0  0  0  0  0
   -8.7219    1.7567  -26.1564 H   0  0  0  0  0  0  0  0  0  0  0  0
   -7.3726    0.6926  -25.8031 H   0  0  0  0  0  0  0  0  0  0  0  0
   -6.5893    2.8161  -25.1864 H   0  0  0  0  0  0  0  0  0  0  0  0
   -6.9900    2.0581  -23.6390 H   0  0  0  0  0  0  0  0  0  0  0  0
   -9.1542    3.1441  -23.7533 H   0  0  0  0  0  0  0  0  0  0  0  0
   -7.0964    4.0662  -22.5451 H   0  0  0  0  0  0  0  0  0  0  0  0
   -8.4473    5.1762  -22.7935 H   0  0  0  0  0  0  0  0  0  0  0  0
   -5.9224    4.9584  -24.5384 H   0  0  0  0  0  0  0  0  0  0  0  0
   -6.3287    6.3084  -23.4694 H   0  0  0  0  0  0  0  0  0  0  0  0
   -7.2623    4.7118  -26.5557 H   0  0  0  0  0  0  0  0  0  0  0  0
   -8.5717    5.8930  -26.7832 H   0  0  0  0  0  0  0  0  0  0  0  0
   -9.4504    3.6535  -26.0259 H   0  0  0  0  0  0  0  0  0  0  0  0
   -9.8109    4.9288  -24.8690 H   0  0  0  0  0  0  0  0  0  0  0  0
  -12.8412    1.0571  -23.9864 H   0  0  0  0  0  0  0  0  0  0  0  0
  -14.4237   -0.6212  -22.9727 H   0  0  0  0  0  0  0  0  0  0  0  0
  -11.1393   -3.2299  -22.1769 H   0  0  0  0  0  0  0  0  0  0  0  0
  1  2  1  0
  2  3  1  0
  3  4  1  0
  4  5  1  0
  5  6  2  0
  6  7  1  0
  7  8  2  0
  8  9  1  0
  9 10  2  0
 10 11  1  0
 11 12  2  0
 12 13  1  0
 13 14  2  0
  4 15  1  0
 15 16  2  0
 15 17  1  0
 17 18  1  6
 18 19  1  0
 19 20  1  0
 20 21  1  0
 21 22  1  0
 22 23  1  0
 23 24  1  0
 24 25  1  0
 25 26  1  0
 26 27  1  0
 19 28  1  0
 28 29  2  0
 28 30  1  0
 30 31  2  0
 31 32  1  0
 32 33  2  0
 33 34  1  0
 33 35  1  0
 35 36  2  0
 17  2  1  0
 27 22  1  0
 36 30  1  0
 14  5  1  0
 36 17  1  0
 14  9  1  0
  1 37  1  0
  1 38  1  0
  1 39  1  0
  2 40  1  1
  3 41  1  0
  3 42  1  0
  6 43  1  0
  8 44  1  0
 10 45  1  0
 11 46  1  0
 12 47  1  0
 13 48  1  0
 18 49  1  0
 18 50  1  0
 20 51  1  0
 20 52  1  0
 21 53  1  0
 21 54  1  0
 22 55  1  0
 23 56  1  0
 23 57  1  0
 24 58  1  0
 24 59  1  0
 26 60  1  0
 26 61  1  0
 27 62  1  0
 27 63  1  0
 31 64  1  0
 32 65  1  0
 35 66  1  0
M  CHG  1  22   1
M  END
