
     RDKit          3D

 66 71  0  0  0  0  0  0  0  0999 V2000
    8.9272   -2.7397   23.6863 C   0  0  0  0  0  0  0  0  0  0  0  0
    8.9781   -1.7596   22.5220 C   0  0  1  0  0  0  0  0  0  0  0  0
    7.6487   -1.5511   21.7907 C   0  0  0  0  0  0  0  0  0  0  0  0
    7.8837   -0.3065   21.0943 N   0  0  0  0  0  0  0  0  0  0  0  0
    6.9944    0.1622   20.0953 C   0  0  0  0  0  0  0  0  0  0  0  0
    7.1973   -0.2097   18.7901 C   0  0  0  0  0  0  0  0  0  0  0  0
    6.3929    0.1407   17.7574 N   0  0  0  0  0  0  0  0  0  0  0  0
    5.3532    0.8934   18.0173 C   0  0  0  0  0  0  0  0  0  0  0  0
    5.0432    1.3735   19.3218 C   0  0  0  0  0  0  0  0  0  0  0  0
    3.9399    2.2362   19.5438 C   0  0  0  0  0  0  0  0  0  0  0  0
    3.6246    2.6586   20.8039 C   0  0  0  0  0  0  0  0  0  0  0  0
    4.4017    2.2338   21.9030 C   0  0  0  0  0  0  0  0  0  0  0  0
    5.5001    1.4289   21.7128 C   0  0  0  0  0  0  0  0  0  0  0  0
    5.8594    0.9804   20.4080 C   0  0  0  0  0  0  0  0  0  0  0  0
    8.8251    0.4867   21.7192 C   0  0  0  0  0  0  0  0  0  0  0  0
    9.0674    1.6350   21.4191 O   0  0  0  0  0  0  0  0  0  0  0  0
    9.4787   -0.3337   22.8615 C   0  0  1  0  0  0  0  0  0  0  0  0
    8.9426    0.2083   24.2067 C   0  0  0  0  0  0  0  0  0  0  0  0
    9.3774    1.5824   24.4383 N   0  0  0  0  0  0  0  0  0  0  0  0
    8.5220    2.4372   25.2444 C   0  0  0  0  0  0  0  0  0  0  0  0
    7.7695    3.5257   24.4743 C   0  0  0  0  0  0  0  0  0  0  0  0
    8.6469    4.6790   24.0679 N   0  0  0  0  0  0  0  0  0  0  0  0
    7.9359    5.6503   23.1695 C   0  0  0  0  0  0  0  0  0  0  0  0
    7.0121    6.5712   23.9762 C   0  0  0  0  0  0  0  0  0  0  0  0
    7.7136    7.2845   24.9759 O   0  0  0  0  0  0  0  0  0  0  0  0
    8.3407    6.4013   25.8813 C   0  0  0  0  0  0  0  0  0  0  0  0
    9.3094    5.4793   25.1655 C   0  0  0  0  0  0  0  0  0  0  0  0
   10.5887    2.0386   24.0337 C   0  0  0  0  0  0  0  0  0  0  0  0
   10.9185    3.2328   24.0919 O   0  0  0  0  0  0  0  0  0  0  0  0
   11.5106    1.0131   23.4626 C   0  0  0  0  0  0  0  0  0  0  0  0
   12.8737    1.3023   23.4216 C   0  0  0  0  0  0  0  0  0  0  0  0
   13.7604    0.3940   22.8742 C   0  0  0  0  0  0  0  0  0  0  0  0
   13.2490   -0.8094   22.3858 C   0  0  0  0  0  0  0  0  0  0  0  0
   14.3121   -1.9408   21.5893 Cl  0  0  0  0  0  0  0  0  0  0  0  0
   11.9028   -1.1249   22.4601 C   0  0  0  0  0  0  0  0  0  0  0  0
   10.9893   -0.1767   22.9330 C   0  0  0  0  0  0  0  0  0  0  0  0
    8.6574   -3.7488   23.3636 H   0  0  0  0  0  0  0  0  0  0  0  0
    9.8950   -2.8008   24.1966 H   0  0  0  0  0  0  0  0  0  0  0  0
    8.1802   -2.4366   24.4275 H   0  0  0  0  0  0  0  0  0  0  0  0
    9.6706   -2.1293   21.7598 H   0  0  0  0  0  0  0  0  0  0  0  0
    7.4054   -2.3452   21.0802 H   0  0  0  0  0  0  0  0  0  0  0  0
    6.8033   -1.4649   22.4927 H   0  0  0  0  0  0  0  0  0  0  0  0
    8.0792   -0.7896   18.5198 H   0  0  0  0  0  0  0  0  0  0  0  0
    4.7102    1.1851   17.1815 H   0  0  0  0  0  0  0  0  0  0  0  0
    3.3646    2.5606   18.6836 H   0  0  0  0  0  0  0  0  0  0  0  0
    2.7894    3.3349   20.9632 H   0  0  0  0  0  0  0  0  0  0  0  0
    4.1272    2.5538   22.9030 H   0  0  0  0  0  0  0  0  0  0  0  0
    6.1063    1.1429   22.5687 H   0  0  0  0  0  0  0  0  0  0  0  0
    7.8483    0.2045   24.1945 H   0  0  0  0  0  0  0  0  0  0  0  0
    9.2861   -0.4437   25.0220 H   0  0  0  0  0  0  0  0  0  0  0  0
    9.1238    2.8864   26.0403 H   0  0  0  0  0  0  0  0  0  0  0  0
    7.7975    1.7798   25.7338 H   0  0  0  0  0  0  0  0  0  0  0  0
    6.9418    3.8705   25.1015 H   0  0  0  0  0  0  0  0  0  0  0  0
    7.3298    3.0988   23.5576 H   0  0  0  0  0  0  0  0  0  0  0  0
    9.4647    4.2461   23.6068 H   0  0  0  0  0  0  0  0  0  0  0  0
    7.3560    5.0911   22.4304 H   0  0  0  0  0  0  0  0  0  0  0  0
    8.6803    6.2419   22.6313 H   0  0  0  0  0  0  0  0  0  0  0  0
    6.2011    5.9827   24.4351 H   0  0  0  0  0  0  0  0  0  0  0  0
    6.5460    7.3259   23.3364 H   0  0  0  0  0  0  0  0  0  0  0  0
    7.5910    5.8061   26.4257 H   0  0  0  0  0  0  0  0  0  0  0  0
    8.8714    7.0266   26.6056 H   0  0  0  0  0  0  0  0  0  0  0  0
    9.7959    4.8003   25.8641 H   0  0  0  0  0  0  0  0  0  0  0  0
   10.0952    6.0661   24.6797 H   0  0  0  0  0  0  0  0  0  0  0  0
   13.2129    2.2660   23.7906 H   0  0  0  0  0  0  0  0  0  0  0  0
   14.8194    0.6159   22.7683 H   0  0  0  0  0  0  0  0  0  0  0  0
   11.5929   -2.0953   22.0865 H   0  0  0  0  0  0  0  0  0  0  0  0
  1  2  1  0
  2  3  1  0
  3  4  1  0
  4  5  1  0
  5  6  2  0
  6  7  1  0
  7  8  2  0
  8  9  1  0
  9 10  2  0
 10 11  1  0
 11 12  2  0
 12 13  1  0
 13 14  2  0
  4 15  1  0
 15 16  2  0
 15 17  1  0
 17 18  1  1
 18 19  1  0
 19 20  1  0
 20 21  1  0
 21 22  1  0
 22 23  1  0
 23 24  1  0
 24 25  1  0
 25 26  1  0
 26 27  1  0
 19 28  1  0
 28 29  2  0
 28 30  1  0
 30 31  2  0
 31 32  1  0
 32 33  2  0
 33 34  1  0
 33 35  1  0
 35 36  2  0
 17  2  1  0
 27 22  1  0
 36 30  1  0
 14  5  1  0
 36 17  1  0
 14  9  1  0
  1 37  1  0
  1 38  1  0
  1 39  1  0
  2 40  1  6
  3 41  1  0
  3 42  1  0
  6 43  1  0
  8 44  1  0
 10 45  1  0
 11 46  1  0
 12 47  1  0
 13 48  1  0
 18 49  1  0
 18 50  1  0
 20 51  1  0
 20 52  1  0
 21 53  1  0
 21 54  1  0
 22 55  1  0
 23 56  1  0
 23 57  1  0
 24 58  1  0
 24 59  1  0
 26 60  1  0
 26 61  1  0
 27 62  1  0
 27 63  1  0
 31 64  1  0
 32 65  1  0
 35 66  1  0
M  CHG  1  22   1
M  END
$$$$
