LIG(A-306)
     RDKit          3D

 31 35  0  0  1  0  0  0  0  0999 V2000
    9.3210    1.5023   21.4289 O   0  0  0  0  0  0  0  0  0  0  0  0
    8.9600    0.4053   21.8268 C   0  0  0  0  0  0  0  0  0  0  0  0
    7.9391   -0.3348   21.3038 N   0  0  0  0  0  0  0  0  0  0  0  0
    7.0962    0.0542   20.2077 C   0  0  0  0  0  0  0  0  0  0  0  0
    5.9101    0.8241   20.4106 C   0  0  0  0  0  0  0  0  0  0  0  0
    5.4190    1.2041   21.6856 C   0  0  0  0  0  0  0  0  0  0  0  0
    4.3099    1.9890   21.8075 C   0  0  0  0  0  0  0  0  0  0  0  0
    3.6330    2.4420   20.6815 C   0  0  0  0  0  0  0  0  0  0  0  0
    4.0521    2.0910   19.4305 C   0  0  0  0  0  0  0  0  0  0  0  0
    5.1942    1.2701   19.2576 C   0  0  0  0  0  0  0  0  0  0  0  0
    5.6863    0.8881   17.9836 C   0  0  0  0  0  0  0  0  0  0  0  0
    6.7723    0.1512   17.7987 N   0  0  0  0  0  0  0  0  0  0  0  0
    7.4423   -0.2458   18.8917 C   0  0  0  0  0  0  0  0  0  0  0  0
    7.7681   -1.6268   21.9877 C   0  0  0  0  0  0  0  0  0  0  0  0
    9.0911   -1.8177   22.7248 C   0  0  0  0  0  0  0  0  0  0  0  0
    9.5620   -0.3717   23.0099 C   0  0  1  0  0  0  0  0  0  0  0  0
   11.0940   -0.2336   23.0830 C   0  0  0  0  0  0  0  0  0  0  0  0
   11.9121   -1.0035   22.2561 C   0  0  0  0  0  0  0  0  0  0  0  0
   13.2541   -0.6894   22.1541 C   0  0  0  0  0  0  0  0  0  0  0  0
   14.2312   -1.5394   20.9922 Cl  0  0  0  0  0  0  0  0  0  0  0  0
   13.8200    0.3266   22.8932 C   0  0  0  0  0  0  0  0  0  0  0  0
   13.0258    1.0376   23.7711 C   0  0  0  0  0  0  0  0  0  0  0  0
   11.6619    0.7735   23.8800 C   0  0  0  0  0  0  0  0  0  0  0  0
   10.8367    1.5644   24.8680 C   0  0  0  0  0  0  0  0  0  0  0  0
    8.9289    0.1963   24.3068 C   0  0  0  0  0  0  0  0  0  0  0  0
    9.4058    1.5603   24.5309 N   0  0  1  0  0  0  0  0  0  0  0  0
    8.6226    2.4403   25.3928 C   0  0  0  0  0  0  0  0  0  0  0  0
    7.7106    3.3812   24.6257 C   0  0  0  0  0  0  0  0  0  0  0  0
    6.6236    3.7132   25.0897 O   0  0  0  0  0  0  0  0  0  0  0  0
    8.1317    3.7842   23.4298 N   0  0  0  0  0  0  0  0  0  0  0  0
    7.2817    4.5242   22.5147 C   0  0  0  0  0  0  0  0  0  0  0  0
  1  2  2  0
  2  3  1  0
 16  2  1  0
  3  4  1  0
  3 14  1  0
  4  5  1  0
  4 13  2  0
  5  6  2  0
  5 10  1  0
  6  7  1  0
  7  8  2  0
  8  9  1  0
  9 10  2  0
 10 11  1  0
 11 12  2  0
 12 13  1  0
 14 15  1  0
 16 15  1  6
 16 17  1  0
 16 25  1  0
 17 18  2  0
 17 23  1  0
 18 19  1  0
 19 20  1  0
 19 21  2  0
 21 22  1  0
 22 23  2  0
 23 24  1  0
 24 26  1  0
 25 26  1  0
 26 27  1  1
 27 28  1  0
 28 29  2  0
 28 30  1  0
 30 31  1  0
M  CHG  1  26   1
M  END
$$$$
