mobile
  PyMOL3.1          3D                             0

 53 56  0  0  0  0  0  0  0  0999 V2000
   -8.7343    0.3590  -21.0092 O   0  0  0  0  0  0  0  0  0  0  0  0
   -8.3069   -0.5900  -21.6524 C   0  0  0  0  0  0  0  0  0  0  0  0
   -7.2675   -1.5229  -21.0552 C   0  0  0  0  0  0  0  0  0  0  0  0
   -6.4750   -0.8969  -19.9261 C   0  0  0  0  0  0  0  0  0  0  0  0
   -5.4248    0.0294  -20.1921 C   0  0  0  0  0  0  0  0  0  0  0  0
   -5.0332    0.4102  -21.5053 C   0  0  0  0  0  0  0  0  0  0  0  0
   -4.0357    1.3219  -21.7042 C   0  0  0  0  0  0  0  0  0  0  0  0
   -3.3753    1.8981  -20.6246 C   0  0  0  0  0  0  0  0  0  0  0  0
   -3.7072    1.5568  -19.3450 C   0  0  0  0  0  0  0  0  0  0  0  0
   -4.7420    0.6198  -19.0948 C   0  0  0  0  0  0  0  0  0  0  0  0
   -5.1557    0.2429  -17.7948 C   0  0  0  0  0  0  0  0  0  0  0  0
   -6.1289   -0.6250  -17.5486 N   0  0  0  0  0  0  0  0  0  0  0  0
   -6.7534   -1.1733  -18.5996 C   0  0  0  0  0  0  0  0  0  0  0  0
   -8.7283   -0.8381  -22.9264 N   0  0  0  0  0  0  0  0  0  0  0  0
   -9.8095   -0.0252  -23.4873 C   0  0  0  0  0  0  0  0  0  0  0  0
  -11.0786   -0.8040  -23.7231 C   0  0  0  0  0  0  0  0  0  0  0  0
  -11.7565   -1.3830  -22.6563 C   0  0  0  0  0  0  0  0  0  0  0  0
  -12.8979   -2.1232  -22.8943 C   0  0  0  0  0  0  0  0  0  0  0  0
  -13.7404   -2.8258  -21.5437 Cl  0  0  0  0  0  0  0  0  0  0  0  0
  -13.3884   -2.3148  -24.1687 C   0  0  0  0  0  0  0  0  0  0  0  0
  -12.7124   -1.7378  -25.2325 C   0  0  0  0  0  0  0  0  0  0  0  0
  -11.5684   -0.9868  -25.0087 C   0  0  0  0  0  0  0  0  0  0  0  0
   -8.1149   -1.7937  -23.7897 C   0  0  0  0  0  0  0  0  0  0  0  0
   -7.1272   -1.3852  -24.6761 C   0  0  0  0  0  0  0  0  0  0  0  0
   -6.3797   -2.3283  -25.3501 C   0  0  0  0  0  0  0  0  0  0  0  0
   -8.3256   -3.1569  -23.6061 C   0  0  0  0  0  0  0  0  0  0  0  0
   -7.6116   -4.0896  -24.2525 N   0  0  0  0  0  0  0  0  0  0  0  0
   -6.6561   -3.6787  -25.1090 C   0  0  0  0  0  0  0  0  0  0  0  0
   -5.9477   -4.7046  -25.7516 N   0  0  0  0  0  0  0  0  0  0  0  0
   -4.9243   -4.5931  -26.6420 C   0  0  0  0  0  0  0  0  0  0  0  0
   -4.2351   -3.5767  -26.7551 O   0  0  0  0  0  0  0  0  0  0  0  0
   -4.6929   -5.8064  -27.4929 C   0  0  0  0  0  0  0  0  0  0  0  0
   -7.7820   -2.4145  -20.6669 H   0  0  0  0  0  0  0  0  0  0  0  0
   -6.5679   -1.8205  -21.8500 H   0  0  0  0  0  0  0  0  0  0  0  0
   -5.5301   -0.0286  -22.3568 H   0  0  0  0  0  0  0  0  0  0  0  0
   -3.7584    1.5985  -22.7107 H   0  0  0  0  0  0  0  0  0  0  0  0
   -2.5923    2.6214  -20.7997 H   0  0  0  0  0  0  0  0  0  0  0  0
   -3.1786    2.0053  -18.5165 H   0  0  0  0  0  0  0  0  0  0  0  0
   -4.6490    0.6889  -16.9523 H   0  0  0  0  0  0  0  0  0  0  0  0
   -7.5368   -1.8890  -18.3947 H   0  0  0  0  0  0  0  0  0  0  0  0
  -10.0274    0.7963  -22.7889 H   0  0  0  0  0  0  0  0  0  0  0  0
   -9.4713    0.3906  -24.4483 H   0  0  0  0  0  0  0  0  0  0  0  0
  -11.3920   -1.2552  -21.6482 H   0  0  0  0  0  0  0  0  0  0  0  0
  -14.2783   -2.9025  -24.3338 H   0  0  0  0  0  0  0  0  0  0  0  0
  -13.0787   -1.8727  -26.2395 H   0  0  0  0  0  0  0  0  0  0  0  0
  -11.0526   -0.5391  -25.8446 H   0  0  0  0  0  0  0  0  0  0  0  0
   -6.9444   -0.3329  -24.8378 H   0  0  0  0  0  0  0  0  0  0  0  0
   -5.6056   -2.0338  -26.0430 H   0  0  0  0  0  0  0  0  0  0  0  0
   -9.0937   -3.4763  -22.9167 H   0  0  0  0  0  0  0  0  0  0  0  0
   -6.2301   -5.6361  -25.5266 H   0  0  0  0  0  0  0  0  0  0  0  0
   -3.8550   -5.6186  -28.1804 H   0  0  0  0  0  0  0  0  0  0  0  0
   -4.4539   -6.6650  -26.8492 H   0  0  0  0  0  0  0  0  0  0  0  0
   -5.6008   -6.0255  -28.0732 H   0  0  0  0  0  0  0  0  0  0  0  0
  1  2  2  0  0  0  0
  2  3  1  0  0  0  0
  2 14  1  0  0  0  0
  3  4  1  0  0  0  0
  3 33  1  0  0  0  0
  3 34  1  0  0  0  0
  4  5  4  0  0  0  0
  4 13  4  0  0  0  0
  5  6  4  0  0  0  0
  5 10  4  0  0  0  0
  6  7  4  0  0  0  0
  6 35  1  0  0  0  0
  7  8  4  0  0  0  0
  7 36  1  0  0  0  0
  8  9  4  0  0  0  0
  8 37  1  0  0  0  0
  9 10  4  0  0  0  0
  9 38  1  0  0  0  0
 10 11  4  0  0  0  0
 11 12  4  0  0  0  0
 11 39  1  0  0  0  0
 12 13  4  0  0  0  0
 13 40  1  0  0  0  0
 14 15  1  0  0  0  0
 14 23  1  0  0  0  0
 15 16  1  0  0  0  0
 15 41  1  0  0  0  0
 15 42  1  0  0  0  0
 16 17  4  0  0  0  0
 16 22  4  0  0  0  0
 17 18  4  0  0  0  0
 17 43  1  0  0  0  0
 18 19  1  0  0  0  0
 18 20  4  0  0  0  0
 20 21  4  0  0  0  0
 20 44  1  0  0  0  0
 21 22  4  0  0  0  0
 21 45  1  0  0  0  0
 22 46  1  0  0  0  0
 23 24  4  0  0  0  0
 23 26  4  0  0  0  0
 24 25  4  0  0  0  0
 24 47  1  0  0  0  0
 25 28  4  0  0  0  0
 25 48  1  0  0  0  0
 26 27  4  0  0  0  0
 26 49  1  0  0  0  0
 27 28  4  0  0  0  0
 28 29  1  0  0  0  0
 29 30  1  0  0  0  0
 29 50  1  0  0  0  0
 30 31  2  0  0  0  0
 30 32  1  0  0  0  0
 32 51  1  0  0  0  0
 32 52  1  0  0  0  0
 32 53  1  0  0  0  0
M  END
$$$$
