
     RDKit          3D

 58 63  0  0  0  0  0  0  0  0999 V2000
    8.5676    1.7173   21.1854 O   0  0  0  0  0  0  0  0  0  0  0  0
    8.3991    0.6251   21.6921 C   0  0  0  0  0  0  0  0  0  0  0  0
    7.5494   -0.4432   20.9791 C   0  0  0  0  0  0  0  0  0  0  0  0
    6.7363    0.1129   19.8448 C   0  0  0  0  0  0  0  0  0  0  0  0
    7.0050   -0.1824   18.5344 C   0  0  0  0  0  0  0  0  0  0  0  0
    6.3081    0.2847   17.4633 N   0  0  0  0  0  0  0  0  0  0  0  0
    5.2950    1.0794   17.7117 C   0  0  0  0  0  0  0  0  0  0  0  0
    4.9027    1.4720   19.0219 C   0  0  0  0  0  0  0  0  0  0  0  0
    3.8121    2.3483   19.2496 C   0  0  0  0  0  0  0  0  0  0  0  0
    3.4971    2.7612   20.5142 C   0  0  0  0  0  0  0  0  0  0  0  0
    4.2230    2.2662   21.6179 C   0  0  0  0  0  0  0  0  0  0  0  0
    5.2619    1.3908   21.4286 C   0  0  0  0  0  0  0  0  0  0  0  0
    5.6429    0.9838   20.1195 C   0  0  0  0  0  0  0  0  0  0  0  0
    9.0287    0.2825   22.8819 N   0  0  0  0  0  0  0  0  0  0  0  0
   10.0767    1.1707   23.4080 C   0  0  0  0  0  0  0  0  0  0  0  0
   11.3493    0.4094   23.7430 C   0  0  0  0  0  0  0  0  0  0  0  0
   11.9073    0.2970   25.0183 C   0  0  0  0  0  0  0  0  0  0  0  0
   13.0791   -0.4199   25.2238 C   0  0  0  0  0  0  0  0  0  0  0  0
   13.7531   -0.9899   24.1594 C   0  0  0  0  0  0  0  0  0  0  0  0
   13.1824   -0.9104   22.8999 C   0  0  0  0  0  0  0  0  0  0  0  0
   13.9933   -1.6977   21.5807 Cl  0  0  0  0  0  0  0  0  0  0  0  0
   11.9661   -0.2733   22.7018 C   0  0  0  0  0  0  0  0  0  0  0  0
    8.4551   -0.6653   23.7935 C   0  0  2  0  0  0  0  0  0  0  0  0
    8.5830   -2.1624   23.4770 C   0  0  0  0  0  0  0  0  0  0  0  0
    7.8269   -2.7324   24.6509 N   0  0  1  0  0  0  0  0  0  0  0  0
    8.5584   -3.7201   25.4473 C   0  0  0  0  0  0  0  0  0  0  0  0
    8.3879   -5.1586   25.1017 C   0  0  0  0  0  0  0  0  0  0  0  0
    7.7635   -4.5965   26.3520 C   0  0  0  0  0  0  0  0  0  0  0  0
    7.4845   -1.4554   25.3854 C   0  0  2  0  0  0  0  0  0  0  0  0
    6.9722   -0.5920   24.2311 C   0  0  0  0  0  0  0  0  0  0  0  0
    8.7951   -0.6747   25.3075 C   0  0  0  0  0  0  0  0  0  0  0  0
    8.2386   -1.2133   20.6052 H   0  0  0  0  0  0  0  0  0  0  0  0
    6.8749   -0.9153   21.6963 H   0  0  0  0  0  0  0  0  0  0  0  0
    7.8395   -0.8369   18.2841 H   0  0  0  0  0  0  0  0  0  0  0  0
    4.7514    1.4824   16.8559 H   0  0  0  0  0  0  0  0  0  0  0  0
    3.2488    2.6989   18.3911 H   0  0  0  0  0  0  0  0  0  0  0  0
    2.7028    3.4830   20.6757 H   0  0  0  0  0  0  0  0  0  0  0  0
    3.9588    2.5823   22.6224 H   0  0  0  0  0  0  0  0  0  0  0  0
    5.8214    1.0321   22.2863 H   0  0  0  0  0  0  0  0  0  0  0  0
    9.7028    1.7184   24.2810 H   0  0  0  0  0  0  0  0  0  0  0  0
   10.2476    1.9132   22.6255 H   0  0  0  0  0  0  0  0  0  0  0  0
   11.4002    0.6727   25.8954 H   0  0  0  0  0  0  0  0  0  0  0  0
   13.4207   -0.5974   26.2330 H   0  0  0  0  0  0  0  0  0  0  0  0
   14.6756   -1.5334   24.3084 H   0  0  0  0  0  0  0  0  0  0  0  0
   11.4356   -0.3416   21.7706 H   0  0  0  0  0  0  0  0  0  0  0  0
    9.6069   -2.5237   23.5121 H   0  0  0  0  0  0  0  0  0  0  0  0
    8.1059   -2.4637   22.5465 H   0  0  0  0  0  0  0  0  0  0  0  0
    6.9479   -3.1790   24.3254 H   0  0  0  0  0  0  0  0  0  0  0  0
    9.5340   -3.4027   25.7894 H   0  0  0  0  0  0  0  0  0  0  0  0
    7.7417   -5.3589   24.2541 H   0  0  0  0  0  0  0  0  0  0  0  0
    9.2427   -5.8163   25.1984 H   0  0  0  0  0  0  0  0  0  0  0  0
    6.6903   -4.4315   26.3505 H   0  0  0  0  0  0  0  0  0  0  0  0
    8.1899   -4.8646   27.3103 H   0  0  0  0  0  0  0  0  0  0  0  0
    6.9445   -1.6134   26.3113 H   0  0  0  0  0  0  0  0  0  0  0  0
    6.2475   -1.1043   23.5888 H   0  0  0  0  0  0  0  0  0  0  0  0
    6.6378    0.4075   24.5161 H   0  0  0  0  0  0  0  0  0  0  0  0
    9.7152   -1.2016   25.5836 H   0  0  0  0  0  0  0  0  0  0  0  0
    8.7449    0.3025   25.7781 H   0  0  0  0  0  0  0  0  0  0  0  0
  1  2  2  0
  2  3  1  0
  3  4  1  0
  4  5  2  0
  5  6  1  0
  6  7  2  0
  7  8  1  0
  8  9  2  0
  9 10  1  0
 10 11  2  0
 11 12  1  0
 12 13  2  0
  2 14  1  0
 14 15  1  0
 15 16  1  0
 16 17  2  0
 17 18  1  0
 18 19  2  0
 19 20  1  0
 20 21  1  0
 20 22  2  0
 23 14  1  6
 23 24  1  0
 24 25  1  0
 25 26  1  0
 26 27  1  0
 27 28  1  0
 25 29  1  0
 29 30  1  0
 29 31  1  0
 13  4  1  0
 22 16  1  0
 30 23  1  0
 13  8  1  0
 31 23  1  0
 28 26  1  0
  3 32  1  0
  3 33  1  0
  5 34  1  0
  7 35  1  0
  9 36  1  0
 10 37  1  0
 11 38  1  0
 12 39  1  0
 15 40  1  0
 15 41  1  0
 17 42  1  0
 18 43  1  0
 19 44  1  0
 22 45  1  0
 24 46  1  0
 24 47  1  0
 25 48  1  6
 26 49  1  0
 27 50  1  0
 27 51  1  0
 28 52  1  0
 28 53  1  0
 29 54  1  1
 30 55  1  0
 30 56  1  0
 31 57  1  0
 31 58  1  0
M  CHG  1  25   1
M  END
$$$$
