
     RDKit          3D

 64 68  0  0  0  0  0  0  0  0999 V2000
   -7.0026    3.6144  -22.4296 C   0  0  0  0  0  0  0  0  0  0  0  0
   -7.6271    2.6028  -23.2493 N   0  0  0  0  0  0  0  0  0  0  0  0
   -7.4258    2.5951  -24.5779 C   0  0  0  0  0  0  0  0  0  0  0  0
   -6.6848    3.3763  -25.1639 O   0  0  0  0  0  0  0  0  0  0  0  0
   -8.1805    1.5304  -25.3812 C   0  0  0  0  0  0  0  0  0  0  0  0
   -8.9966    0.6192  -24.6126 N   0  0  0  0  0  0  0  0  0  0  0  0
   -8.4584   -0.6962  -24.3287 C   0  0  0  0  0  0  0  0  0  0  0  0
   -8.9922   -1.2821  -22.9996 C   0  0  2  0  0  0  0  0  0  0  0  0
   -8.4388   -0.4775  -21.8002 C   0  0  0  0  0  0  0  0  0  0  0  0
   -8.7451    0.6592  -21.5030 O   0  0  0  0  0  0  0  0  0  0  0  0
   -7.5175   -1.2359  -21.1162 N   0  0  0  0  0  0  0  0  0  0  0  0
   -6.6566   -0.7422  -20.0993 C   0  0  0  0  0  0  0  0  0  0  0  0
   -6.8429   -1.1602  -18.8067 C   0  0  0  0  0  0  0  0  0  0  0  0
   -6.0456   -0.8204  -17.7670 N   0  0  0  0  0  0  0  0  0  0  0  0
   -5.0228   -0.0391  -18.0132 C   0  0  0  0  0  0  0  0  0  0  0  0
   -4.7083    0.4671  -19.3078 C   0  0  0  0  0  0  0  0  0  0  0  0
   -3.6062    1.3363  -19.5268 C   0  0  0  0  0  0  0  0  0  0  0  0
   -3.2906    1.7532  -20.7902 C   0  0  0  0  0  0  0  0  0  0  0  0
   -4.0477    1.3058  -21.8968 C   0  0  0  0  0  0  0  0  0  0  0  0
   -5.1337    0.4851  -21.7080 C   0  0  0  0  0  0  0  0  0  0  0  0
   -5.5184    0.0745  -20.3993 C   0  0  0  0  0  0  0  0  0  0  0  0
   -7.1695   -2.4542  -21.8010 C   0  0  0  0  0  0  0  0  0  0  0  0
   -8.3885   -2.6777  -22.7057 C   0  0  2  0  0  0  0  0  0  0  0  0
   -8.0361   -3.5580  -23.9091 C   0  0  0  0  0  0  0  0  0  0  0  0
   -8.0183   -5.2846  -23.5020 S   0  0  0  0  0  0  0  0  0  0  0  0
   -7.0061   -5.5286  -22.4844 O   0  0  0  0  0  0  0  0  0  0  0  0
   -8.0281   -6.0805  -24.7225 O   0  0  0  0  0  0  0  0  0  0  0  0
   -9.5026   -5.3677  -22.7486 N   0  0  0  0  0  0  0  0  0  0  0  0
  -10.7323   -5.3088  -23.5261 C   0  0  0  0  0  0  0  0  0  0  0  0
  -10.5106   -1.1989  -23.0640 C   0  0  0  0  0  0  0  0  0  0  0  0
  -11.3619   -2.1827  -22.5523 C   0  0  0  0  0  0  0  0  0  0  0  0
  -12.7370   -2.0093  -22.5884 C   0  0  0  0  0  0  0  0  0  0  0  0
  -13.7805   -3.2528  -21.9482 Cl  0  0  0  0  0  0  0  0  0  0  0  0
  -13.3172   -0.8539  -23.1008 C   0  0  0  0  0  0  0  0  0  0  0  0
  -12.4858    0.1219  -23.6092 C   0  0  0  0  0  0  0  0  0  0  0  0
  -11.1042   -0.0573  -23.6202 C   0  0  0  0  0  0  0  0  0  0  0  0
  -10.2709    0.9968  -24.2844 C   0  0  0  0  0  0  0  0  0  0  0  0
  -10.7029    2.1166  -24.5267 O   0  0  0  0  0  0  0  0  0  0  0  0
   -7.4195    4.6068  -22.6340 H   0  0  0  0  0  0  0  0  0  0  0  0
   -5.9256    3.6561  -22.6263 H   0  0  0  0  0  0  0  0  0  0  0  0
   -7.1685    3.3581  -21.3791 H   0  0  0  0  0  0  0  0  0  0  0  0
   -8.2853    1.9710  -22.8010 H   0  0  0  0  0  0  0  0  0  0  0  0
   -7.4224    0.9603  -25.9315 H   0  0  0  0  0  0  0  0  0  0  0  0
   -8.7950    2.0515  -26.1222 H   0  0  0  0  0  0  0  0  0  0  0  0
   -8.7182   -1.3764  -25.1501 H   0  0  0  0  0  0  0  0  0  0  0  0
   -7.3665   -0.6132  -24.2790 H   0  0  0  0  0  0  0  0  0  0  0  0
   -7.6869   -1.8062  -18.5707 H   0  0  0  0  0  0  0  0  0  0  0  0
   -4.3845    0.2265  -17.1696 H   0  0  0  0  0  0  0  0  0  0  0  0
   -3.0318    1.6621  -18.6637 H   0  0  0  0  0  0  0  0  0  0  0  0
   -2.4621    2.4364  -20.9522 H   0  0  0  0  0  0  0  0  0  0  0  0
   -3.7891    1.6390  -22.9001 H   0  0  0  0  0  0  0  0  0  0  0  0
   -5.6993    0.1370  -22.5672 H   0  0  0  0  0  0  0  0  0  0  0  0
   -6.2455   -2.3396  -22.3910 H   0  0  0  0  0  0  0  0  0  0  0  0
   -7.0006   -3.2669  -21.0891 H   0  0  0  0  0  0  0  0  0  0  0  0
   -9.1157   -3.1781  -22.0704 H   0  0  0  0  0  0  0  0  0  0  0  0
   -8.7264   -3.4616  -24.7514 H   0  0  0  0  0  0  0  0  0  0  0  0
   -7.0277   -3.3410  -24.2731 H   0  0  0  0  0  0  0  0  0  0  0  0
   -9.4373   -6.1588  -22.1160 H   0  0  0  0  0  0  0  0  0  0  0  0
  -10.7946   -4.3500  -24.0469 H   0  0  0  0  0  0  0  0  0  0  0  0
  -10.8258   -6.1173  -24.2576 H   0  0  0  0  0  0  0  0  0  0  0  0
  -11.5827   -5.3543  -22.8382 H   0  0  0  0  0  0  0  0  0  0  0  0
  -10.9783   -3.0933  -22.1105 H   0  0  0  0  0  0  0  0  0  0  0  0
  -14.3950   -0.7343  -23.0887 H   0  0  0  0  0  0  0  0  0  0  0  0
  -12.8834    1.0427  -24.0174 H   0  0  0  0  0  0  0  0  0  0  0  0
  1  2  1  0
  2  3  1  0
  3  4  2  0
  3  5  1  0
  5  6  1  0
  6  7  1  0
  8  7  1  6
  8  9  1  0
  9 10  2  0
  9 11  1  0
 11 12  1  0
 12 13  2  0
 13 14  1  0
 14 15  2  0
 15 16  1  0
 16 17  2  0
 17 18  1  0
 18 19  2  0
 19 20  1  0
 20 21  2  0
 11 22  1  0
 22 23  1  0
 23 24  1  0
 24 25  1  0
 25 26  2  0
 25 27  2  0
 25 28  1  0
 28 29  1  0
  8 30  1  0
 30 31  2  0
 31 32  1  0
 32 33  1  0
 32 34  2  0
 34 35  1  0
 35 36  2  0
 36 37  1  0
 37 38  2  0
 37  6  1  0
 23  8  1  0
 36 30  1  0
 21 12  1  0
 21 16  1  0
  1 39  1  0
  1 40  1  0
  1 41  1  0
  2 42  1  0
  5 43  1  0
  5 44  1  0
  7 45  1  0
  7 46  1  0
 13 47  1  0
 15 48  1  0
 17 49  1  0
 18 50  1  0
 19 51  1  0
 20 52  1  0
 22 53  1  0
 22 54  1  0
 23 55  1  1
 24 56  1  0
 24 57  1  0
 28 58  1  0
 29 59  1  0
 29 60  1  0
 29 61  1  0
 31 62  1  0
 34 63  1  0
 35 64  1  0
M  END
