
     RDKit          3D

 64 68  0  0  0  0  0  0  0  0999 V2000
    7.2724    4.6350   22.3241 C   0  0  0  0  0  0  0  0  0  0  0  0
    7.9427    3.6546   23.1454 N   0  0  0  0  0  0  0  0  0  0  0  0
    7.7707    3.6629   24.4781 C   0  0  0  0  0  0  0  0  0  0  0  0
    7.0210    4.4327   25.0681 O   0  0  0  0  0  0  0  0  0  0  0  0
    8.5723    2.6327   25.2810 C   0  0  0  0  0  0  0  0  0  0  0  0
    9.3967    1.7320   24.5088 N   0  0  0  0  0  0  0  0  0  0  0  0
    8.8895    0.3978   24.2575 C   0  0  0  0  0  0  0  0  0  0  0  0
    9.4105   -0.1946   22.9262 C   0  0  2  0  0  0  0  0  0  0  0  0
    8.8088    0.5748   21.7270 C   0  0  0  0  0  0  0  0  0  0  0  0
    9.0765    1.7146   21.4053 O   0  0  0  0  0  0  0  0  0  0  0  0
    7.8944   -0.2198   21.0755 N   0  0  0  0  0  0  0  0  0  0  0  0
    6.9981    0.2332   20.0704 C   0  0  0  0  0  0  0  0  0  0  0  0
    7.1678   -0.2004   18.7807 C   0  0  0  0  0  0  0  0  0  0  0  0
    6.3389    0.1003   17.7538 N   0  0  0  0  0  0  0  0  0  0  0  0
    5.3002    0.8569   18.0104 C   0  0  0  0  0  0  0  0  0  0  0  0
    4.9999    1.3751   19.3036 C   0  0  0  0  0  0  0  0  0  0  0  0
    3.8788    2.2169   19.5334 C   0  0  0  0  0  0  0  0  0  0  0  0
    3.5793    2.6454   20.7968 C   0  0  0  0  0  0  0  0  0  0  0  0
    4.3725    2.2371   21.8932 C   0  0  0  0  0  0  0  0  0  0  0  0
    5.4767    1.4439   21.6932 C   0  0  0  0  0  0  0  0  0  0  0  0
    5.8442    1.0229   20.3828 C   0  0  0  0  0  0  0  0  0  0  0  0
    7.5957   -1.4360   21.7868 C   0  0  0  0  0  0  0  0  0  0  0  0
    8.8399   -1.6110   22.6676 C   0  0  2  0  0  0  0  0  0  0  0  0
    8.5386   -2.4810   23.8922 C   0  0  0  0  0  0  0  0  0  0  0  0
    8.5604   -4.2138   23.5126 S   0  0  0  0  0  0  0  0  0  0  0  0
    7.5335   -4.5023   22.5217 O   0  0  0  0  0  0  0  0  0  0  0  0
    8.6191   -4.9892   24.7449 O   0  0  0  0  0  0  0  0  0  0  0  0
   10.0297   -4.2680   22.7278 N   0  0  0  0  0  0  0  0  0  0  0  0
   11.2739   -4.1625   23.4768 C   0  0  0  0  0  0  0  0  0  0  0  0
   10.9270   -0.0683   22.9555 C   0  0  0  0  0  0  0  0  0  0  0  0
   11.7942   -1.0364   22.4405 C   0  0  0  0  0  0  0  0  0  0  0  0
   13.1644   -0.8244   22.4433 C   0  0  0  0  0  0  0  0  0  0  0  0
   14.2281   -2.0488   21.7996 Cl  0  0  0  0  0  0  0  0  0  0  0  0
   13.7229    0.3548   22.9246 C   0  0  0  0  0  0  0  0  0  0  0  0
   12.8758    1.3153   23.4360 C   0  0  0  0  0  0  0  0  0  0  0  0
   11.5003    1.0981   23.4805 C   0  0  0  0  0  0  0  0  0  0  0  0
   10.6524    2.1394   24.1465 C   0  0  0  0  0  0  0  0  0  0  0  0
   11.0580    3.2745   24.3616 O   0  0  0  0  0  0  0  0  0  0  0  0
    7.6657    5.6418   22.5036 H   0  0  0  0  0  0  0  0  0  0  0  0
    6.1992    4.6501   22.5440 H   0  0  0  0  0  0  0  0  0  0  0  0
    7.4225    4.3664   21.2743 H   0  0  0  0  0  0  0  0  0  0  0  0
    8.6085    3.0340   22.6925 H   0  0  0  0  0  0  0  0  0  0  0  0
    7.8426    2.0508   25.8568 H   0  0  0  0  0  0  0  0  0  0  0  0
    9.1879    3.1825   25.9999 H   0  0  0  0  0  0  0  0  0  0  0  0
    9.1861   -0.2615   25.0835 H   0  0  0  0  0  0  0  0  0  0  0  0
    7.7949    0.4497   24.2308 H   0  0  0  0  0  0  0  0  0  0  0  0
    8.0243   -0.8265   18.5361 H   0  0  0  0  0  0  0  0  0  0  0  0
    4.6365    1.0909   17.1771 H   0  0  0  0  0  0  0  0  0  0  0  0
    3.2769    2.5126   18.6783 H   0  0  0  0  0  0  0  0  0  0  0  0
    2.7356    3.3079   20.9665 H   0  0  0  0  0  0  0  0  0  0  0  0
    4.1266    2.5793   22.8967 H   0  0  0  0  0  0  0  0  0  0  0  0
    6.0704    1.1256   22.5449 H   0  0  0  0  0  0  0  0  0  0  0  0
    6.6819   -1.3375   22.3954 H   0  0  0  0  0  0  0  0  0  0  0  0
    7.4342   -2.2646   21.0917 H   0  0  0  0  0  0  0  0  0  0  0  0
    9.5668   -2.1013   22.0242 H   0  0  0  0  0  0  0  0  0  0  0  0
    9.2441   -2.3519   24.7173 H   0  0  0  0  0  0  0  0  0  0  0  0
    7.5327   -2.2862   24.2750 H   0  0  0  0  0  0  0  0  0  0  0  0
    9.9728   -5.0708   22.1092 H   0  0  0  0  0  0  0  0  0  0  0  0
   11.3206   -3.1940   23.9810 H   0  0  0  0  0  0  0  0  0  0  0  0
   11.4059   -4.9561   24.2186 H   0  0  0  0  0  0  0  0  0  0  0  0
   12.1100   -4.1956   22.7710 H   0  0  0  0  0  0  0  0  0  0  0  0
   11.4268   -1.9643   22.0216 H   0  0  0  0  0  0  0  0  0  0  0  0
   14.7964    0.5040   22.8867 H   0  0  0  0  0  0  0  0  0  0  0  0
   13.2562    2.2533   23.8209 H   0  0  0  0  0  0  0  0  0  0  0  0
  1  2  1  0
  2  3  1  0
  3  4  2  0
  3  5  1  0
  5  6  1  0
  6  7  1  0
  8  7  1  1
  8  9  1  0
  9 10  2  0
  9 11  1  0
 11 12  1  0
 12 13  2  0
 13 14  1  0
 14 15  2  0
 15 16  1  0
 16 17  2  0
 17 18  1  0
 18 19  2  0
 19 20  1  0
 20 21  2  0
 11 22  1  0
 22 23  1  0
 23 24  1  0
 24 25  1  0
 25 26  2  0
 25 27  2  0
 25 28  1  0
 28 29  1  0
  8 30  1  0
 30 31  2  0
 31 32  1  0
 32 33  1  0
 32 34  2  0
 34 35  1  0
 35 36  2  0
 36 37  1  0
 37 38  2  0
 37  6  1  0
 23  8  1  0
 36 30  1  0
 21 12  1  0
 21 16  1  0
  1 39  1  0
  1 40  1  0
  1 41  1  0
  2 42  1  0
  5 43  1  0
  5 44  1  0
  7 45  1  0
  7 46  1  0
 13 47  1  0
 15 48  1  0
 17 49  1  0
 18 50  1  0
 19 51  1  0
 20 52  1  0
 22 53  1  0
 22 54  1  0
 23 55  1  6
 24 56  1  0
 24 57  1  0
 28 58  1  0
 29 59  1  0
 29 60  1  0
 29 61  1  0
 31 62  1  0
 34 63  1  0
 35 64  1  0
M  END
$$$$
