
     RDKit          3D

 66 71  0  0  0  0  0  0  0  0999 V2000
    8.5219   -1.4041   23.9020 C   0  0  0  0  0  0  0  0  0  0  0  0
    8.4932   -0.8470   22.4788 C   0  0  1  0  0  0  0  0  0  0  0  0
    7.2118   -1.2617   21.7235 C   0  0  0  0  0  0  0  0  0  0  0  0
    6.9534   -0.1428   20.8471 N   0  0  0  0  0  0  0  0  0  0  0  0
    5.9210   -0.0998   19.8816 C   0  0  0  0  0  0  0  0  0  0  0  0
    6.0687   -0.7818   18.7014 C   0  0  0  0  0  0  0  0  0  0  0  0
    5.2291   -0.6739   17.6455 N   0  0  0  0  0  0  0  0  0  0  0  0
    4.1788    0.1009   17.7926 C   0  0  0  0  0  0  0  0  0  0  0  0
    3.8544    0.7872   18.9978 C   0  0  0  0  0  0  0  0  0  0  0  0
    2.6676    1.5565   19.1265 C   0  0  0  0  0  0  0  0  0  0  0  0
    2.3386    2.1456   20.3162 C   0  0  0  0  0  0  0  0  0  0  0  0
    3.2067    2.0286   21.4237 C   0  0  0  0  0  0  0  0  0  0  0  0
    4.3805    1.3209   21.3183 C   0  0  0  0  0  0  0  0  0  0  0  0
    4.7393    0.6791   20.0942 C   0  0  0  0  0  0  0  0  0  0  0  0
    7.7274    0.9699   21.0912 C   0  0  0  0  0  0  0  0  0  0  0  0
    7.6737    1.9785   20.4214 O   0  0  0  0  0  0  0  0  0  0  0  0
    8.5869    0.7073   22.3538 C   0  0  1  0  0  0  0  0  0  0  0  0
    7.9017    1.4321   23.5482 C   0  0  0  0  0  0  0  0  0  0  0  0
    7.9485    2.8748   23.3952 N   0  0  0  0  0  0  0  0  0  0  0  0
    6.8309    3.7339   23.7528 C   0  0  0  0  0  0  0  0  0  0  0  0
    6.2786    4.4166   22.5006 C   0  0  0  0  0  0  0  0  0  0  0  0
    5.0023    5.1255   22.7577 N   0  0  0  0  0  0  0  0  0  0  0  0
    4.3689    5.5708   21.4739 C   0  0  0  0  0  0  0  0  0  0  0  0
    3.0737    6.3089   21.7563 C   0  0  0  0  0  0  0  0  0  0  0  0
    3.2776    7.4258   22.5998 O   0  0  0  0  0  0  0  0  0  0  0  0
    3.8124    7.0190   23.8435 C   0  0  0  0  0  0  0  0  0  0  0  0
    5.1450    6.3027   23.6904 C   0  0  0  0  0  0  0  0  0  0  0  0
    9.0937    3.5190   23.0258 C   0  0  0  0  0  0  0  0  0  0  0  0
    9.2508    4.7236   23.1833 O   0  0  0  0  0  0  0  0  0  0  0  0
   10.1696    2.6766   22.4334 C   0  0  0  0  0  0  0  0  0  0  0  0
   11.3841    3.3052   22.1561 C   0  0  0  0  0  0  0  0  0  0  0  0
   12.4939    2.5531   21.8550 C   0  0  0  0  0  0  0  0  0  0  0  0
   12.3642    1.1662   21.8096 C   0  0  0  0  0  0  0  0  0  0  0  0
   13.7717    0.1878   21.5249 Cl  0  0  0  0  0  0  0  0  0  0  0  0
   11.1356    0.5436   21.9658 C   0  0  0  0  0  0  0  0  0  0  0  0
    9.9918    1.2982   22.2480 C   0  0  0  0  0  0  0  0  0  0  0  0
    7.6453   -1.0694   24.4716 H   0  0  0  0  0  0  0  0  0  0  0  0
    8.5050   -2.4991   23.8946 H   0  0  0  0  0  0  0  0  0  0  0  0
    9.4178   -1.0872   24.4463 H   0  0  0  0  0  0  0  0  0  0  0  0
    9.3353   -1.2680   21.9201 H   0  0  0  0  0  0  0  0  0  0  0  0
    6.3750   -1.4358   22.4169 H   0  0  0  0  0  0  0  0  0  0  0  0
    7.3475   -2.1845   21.1476 H   0  0  0  0  0  0  0  0  0  0  0  0
    6.9292   -1.4354   18.5618 H   0  0  0  0  0  0  0  0  0  0  0  0
    3.5045    0.1940   16.9403 H   0  0  0  0  0  0  0  0  0  0  0  0
    2.0339    1.6763   18.2561 H   0  0  0  0  0  0  0  0  0  0  0  0
    1.4088    2.7015   20.4099 H   0  0  0  0  0  0  0  0  0  0  0  0
    2.9466    2.5197   22.3585 H   0  0  0  0  0  0  0  0  0  0  0  0
    5.0339    1.2397   22.1806 H   0  0  0  0  0  0  0  0  0  0  0  0
    8.4097    1.1289   24.4740 H   0  0  0  0  0  0  0  0  0  0  0  0
    6.8542    1.1246   23.6253 H   0  0  0  0  0  0  0  0  0  0  0  0
    6.0407    3.1512   24.2467 H   0  0  0  0  0  0  0  0  0  0  0  0
    7.1922    4.4867   24.4619 H   0  0  0  0  0  0  0  0  0  0  0  0
    6.1184    3.6741   21.7113 H   0  0  0  0  0  0  0  0  0  0  0  0
    7.0159    5.1343   22.1265 H   0  0  0  0  0  0  0  0  0  0  0  0
    4.3618    4.4325   23.1946 H   0  0  0  0  0  0  0  0  0  0  0  0
    4.1944    4.6905   20.8484 H   0  0  0  0  0  0  0  0  0  0  0  0
    5.0681    6.2324   20.9530 H   0  0  0  0  0  0  0  0  0  0  0  0
    2.3609    5.6077   22.2231 H   0  0  0  0  0  0  0  0  0  0  0  0
    2.6422    6.6833   20.8253 H   0  0  0  0  0  0  0  0  0  0  0  0
    3.9351    7.9199   24.4488 H   0  0  0  0  0  0  0  0  0  0  0  0
    3.1018    6.3490   24.3550 H   0  0  0  0  0  0  0  0  0  0  0  0
    5.4962    5.9551   24.6640 H   0  0  0  0  0  0  0  0  0  0  0  0
    5.8907    6.9869   23.2719 H   0  0  0  0  0  0  0  0  0  0  0  0
   11.4526    4.3856   22.2155 H   0  0  0  0  0  0  0  0  0  0  0  0
   13.4440    3.0327   21.6440 H   0  0  0  0  0  0  0  0  0  0  0  0
   11.0732   -0.5239   21.8090 H   0  0  0  0  0  0  0  0  0  0  0  0
  1  2  1  0
  2  3  1  0
  3  4  1  0
  4  5  1  0
  5  6  2  0
  6  7  1  0
  7  8  2  0
  8  9  1  0
  9 10  2  0
 10 11  1  0
 11 12  2  0
 12 13  1  0
 13 14  2  0
  4 15  1  0
 15 16  2  0
 15 17  1  0
 17 18  1  1
 18 19  1  0
 19 20  1  0
 20 21  1  0
 21 22  1  0
 22 23  1  0
 23 24  1  0
 24 25  1  0
 25 26  1  0
 26 27  1  0
 19 28  1  0
 28 29  2  0
 28 30  1  0
 30 31  2  0
 31 32  1  0
 32 33  2  0
 33 34  1  0
 33 35  1  0
 35 36  2  0
 17  2  1  0
 27 22  1  0
 36 30  1  0
 14  5  1  0
 36 17  1  0
 14  9  1  0
  1 37  1  0
  1 38  1  0
  1 39  1  0
  2 40  1  6
  3 41  1  0
  3 42  1  0
  6 43  1  0
  8 44  1  0
 10 45  1  0
 11 46  1  0
 12 47  1  0
 13 48  1  0
 18 49  1  0
 18 50  1  0
 20 51  1  0
 20 52  1  0
 21 53  1  0
 21 54  1  0
 22 55  1  0
 23 56  1  0
 23 57  1  0
 24 58  1  0
 24 59  1  0
 26 60  1  0
 26 61  1  0
 27 62  1  0
 27 63  1  0
 31 64  1  0
 32 65  1  0
 35 66  1  0
M  CHG  1  22   1
M  END
$$$$
