
     RDKit          3D

 55 60  0  0  0  0  0  0  0  0999 V2000
    8.9308   -2.7662   23.6705 C   0  0  0  0  0  0  0  0  0  0  0  0
    8.9744   -1.7798   22.5151 C   0  0  1  0  0  0  0  0  0  0  0  0
    7.6345   -1.5640   21.8015 C   0  0  0  0  0  0  0  0  0  0  0  0
    7.8721   -0.3223   21.0936 N   0  0  0  0  0  0  0  0  0  0  0  0
    6.9865    0.1553   20.0899 C   0  0  0  0  0  0  0  0  0  0  0  0
    7.1835   -0.2282   18.7845 C   0  0  0  0  0  0  0  0  0  0  0  0
    6.3631    0.0932   17.7556 N   0  0  0  0  0  0  0  0  0  0  0  0
    5.3183    0.8364   18.0230 C   0  0  0  0  0  0  0  0  0  0  0  0
    5.0107    1.3325   19.3209 C   0  0  0  0  0  0  0  0  0  0  0  0
    3.9192    2.2158   19.5329 C   0  0  0  0  0  0  0  0  0  0  0  0
    3.6190    2.6471   20.7934 C   0  0  0  0  0  0  0  0  0  0  0  0
    4.3823    2.2090   21.8985 C   0  0  0  0  0  0  0  0  0  0  0  0
    5.4851    1.4075   21.7107 C   0  0  0  0  0  0  0  0  0  0  0  0
    5.8399    0.9597   20.4059 C   0  0  0  0  0  0  0  0  0  0  0  0
    8.8523    0.4568   21.6859 C   0  0  0  0  0  0  0  0  0  0  0  0
    9.1412    1.5746   21.3403 O   0  0  0  0  0  0  0  0  0  0  0  0
    9.4788   -0.3537   22.8582 C   0  0  1  0  0  0  0  0  0  0  0  0
    8.9155    0.1868   24.2046 C   0  0  0  0  0  0  0  0  0  0  0  0
    9.3498    1.5495   24.4657 N   0  0  0  0  0  0  0  0  0  0  0  0
    8.5309    2.4498   25.2580 C   0  0  0  0  0  0  0  0  0  0  0  0
    7.9865    3.5986   24.4507 C   0  0  0  0  0  0  0  0  0  0  0  0
    7.8054    4.9523   24.7746 C   0  0  0  0  0  0  0  0  0  0  0  0
    7.2376    5.5762   23.7435 N   0  0  0  0  0  0  0  0  0  0  0  0
    7.0910    4.6090   22.8624 N   0  0  0  0  0  0  0  0  0  0  0  0
    7.5082    3.4053   23.2198 N   0  0  0  0  0  0  0  0  0  0  0  0
   10.5709    2.0245   24.0778 C   0  0  0  0  0  0  0  0  0  0  0  0
   10.8953    3.1961   24.2296 O   0  0  0  0  0  0  0  0  0  0  0  0
   11.4912    1.0139   23.4653 C   0  0  0  0  0  0  0  0  0  0  0  0
   12.8508    1.3208   23.4166 C   0  0  0  0  0  0  0  0  0  0  0  0
   13.7543    0.4093   22.9120 C   0  0  0  0  0  0  0  0  0  0  0  0
   13.2568   -0.8136   22.4785 C   0  0  0  0  0  0  0  0  0  0  0  0
   14.1322   -1.7065   21.9842 F   0  0  0  0  0  0  0  0  0  0  0  0
   11.9159   -1.1483   22.5125 C   0  0  0  0  0  0  0  0  0  0  0  0
   10.9888   -0.1905   22.9472 C   0  0  0  0  0  0  0  0  0  0  0  0
    8.6627   -3.7735   23.3380 H   0  0  0  0  0  0  0  0  0  0  0  0
    9.9039   -2.8172   24.1686 H   0  0  0  0  0  0  0  0  0  0  0  0
    8.1917   -2.4561   24.4156 H   0  0  0  0  0  0  0  0  0  0  0  0
    9.6463   -2.1606   21.7364 H   0  0  0  0  0  0  0  0  0  0  0  0
    7.3991   -2.3565   21.0866 H   0  0  0  0  0  0  0  0  0  0  0  0
    6.7929   -1.4868   22.5148 H   0  0  0  0  0  0  0  0  0  0  0  0
    8.0521   -0.8336   18.5271 H   0  0  0  0  0  0  0  0  0  0  0  0
    4.6517    1.0955   17.1994 H   0  0  0  0  0  0  0  0  0  0  0  0
    3.3427    2.5412   18.6692 H   0  0  0  0  0  0  0  0  0  0  0  0
    2.7900    3.3293   20.9535 H   0  0  0  0  0  0  0  0  0  0  0  0
    4.1120    2.5325   22.9016 H   0  0  0  0  0  0  0  0  0  0  0  0
    6.1125    1.1617   22.5636 H   0  0  0  0  0  0  0  0  0  0  0  0
    7.8201    0.1765   24.1814 H   0  0  0  0  0  0  0  0  0  0  0  0
    9.2483   -0.4768   25.0140 H   0  0  0  0  0  0  0  0  0  0  0  0
    9.1056    2.8241   26.1119 H   0  0  0  0  0  0  0  0  0  0  0  0
    7.7009    1.8664   25.6718 H   0  0  0  0  0  0  0  0  0  0  0  0
    8.0542    5.4917   25.6802 H   0  0  0  0  0  0  0  0  0  0  0  0
    6.6893    4.7835   21.9516 H   0  0  0  0  0  0  0  0  0  0  0  0
   13.1732    2.2901   23.7772 H   0  0  0  0  0  0  0  0  0  0  0  0
   14.8204    0.6098   22.8531 H   0  0  0  0  0  0  0  0  0  0  0  0
   11.6337   -2.1482   22.1921 H   0  0  0  0  0  0  0  0  0  0  0  0
  1  2  1  0
  2  3  1  0
  3  4  1  0
  4  5  1  0
  5  6  2  0
  6  7  1  0
  7  8  2  0
  8  9  1  0
  9 10  2  0
 10 11  1  0
 11 12  2  0
 12 13  1  0
 13 14  2  0
  4 15  1  0
 15 16  2  0
 15 17  1  0
 17 18  1  1
 18 19  1  0
 19 20  1  0
 20 21  1  0
 21 22  1  0
 22 23  2  0
 23 24  1  0
 24 25  1  0
 19 26  1  0
 26 27  2  0
 26 28  1  0
 28 29  2  0
 29 30  1  0
 30 31  2  0
 31 32  1  0
 31 33  1  0
 33 34  2  0
 17  2  1  0
 25 21  2  0
 34 28  1  0
 14  5  1  0
 34 17  1  0
 14  9  1  0
  1 35  1  0
  1 36  1  0
  1 37  1  0
  2 38  1  6
  3 39  1  0
  3 40  1  0
  6 41  1  0
  8 42  1  0
 10 43  1  0
 11 44  1  0
 12 45  1  0
 13 46  1  0
 18 47  1  0
 18 48  1  0
 20 49  1  0
 20 50  1  0
 22 51  1  0
 24 52  1  0
 29 53  1  0
 30 54  1  0
 33 55  1  0
M  END
$$$$
