
     RDKit          3D

 67 72  0  0  0  0  0  0  0  0999 V2000
   -7.0205    3.6303  -22.4838 C   0  0  0  0  0  0  0  0  0  0  0  0
   -7.7881    2.6786  -23.2610 N   0  0  0  0  0  0  0  0  0  0  0  0
   -7.4949    2.5158  -24.5707 C   0  0  0  0  0  0  0  0  0  0  0  0
   -6.7251    3.2413  -25.1869 O   0  0  0  0  0  0  0  0  0  0  0  0
   -8.1610    1.3596  -25.3210 C   0  0  0  0  0  0  0  0  0  0  0  0
   -8.9841    0.4597  -24.5550 N   0  0  0  0  0  0  0  0  0  0  0  0
   -8.5061   -0.8878  -24.2871 C   0  0  0  0  0  0  0  0  0  0  0  0
   -9.0669   -1.4250  -22.9438 C   0  0  2  0  0  0  0  0  0  0  0  0
   -8.4587   -0.5862  -21.7902 C   0  0  0  0  0  0  0  0  0  0  0  0
   -8.7460    0.5614  -21.5120 O   0  0  0  0  0  0  0  0  0  0  0  0
   -7.4931   -1.3312  -21.1499 N   0  0  0  0  0  0  0  0  0  0  0  0
   -6.6487   -0.8080  -20.1288 C   0  0  0  0  0  0  0  0  0  0  0  0
   -6.8813   -1.1585  -18.8219 C   0  0  0  0  0  0  0  0  0  0  0  0
   -6.1153   -0.7723  -17.7714 N   0  0  0  0  0  0  0  0  0  0  0  0
   -5.0904    0.0056  -18.0182 C   0  0  0  0  0  0  0  0  0  0  0  0
   -4.7442    0.4670  -19.3205 C   0  0  0  0  0  0  0  0  0  0  0  0
   -3.6613    1.3609  -19.5302 C   0  0  0  0  0  0  0  0  0  0  0  0
   -3.3270    1.7600  -20.7936 C   0  0  0  0  0  0  0  0  0  0  0  0
   -4.0568    1.2871  -21.9062 C   0  0  0  0  0  0  0  0  0  0  0  0
   -5.1372    0.4576  -21.7270 C   0  0  0  0  0  0  0  0  0  0  0  0
   -5.5257    0.0373  -20.4224 C   0  0  0  0  0  0  0  0  0  0  0  0
   -7.2195   -2.5876  -21.8195 C   0  0  0  0  0  0  0  0  0  0  0  0
   -8.5398   -2.8265  -22.5562 C   0  0  2  0  0  0  0  0  0  0  0  0
   -8.4495   -3.8485  -23.6855 C   0  0  0  0  0  0  0  0  0  0  0  0
   -8.1839   -5.1869  -23.2255 N   0  0  0  0  0  0  0  0  0  0  0  0
   -6.9213   -5.6783  -23.0455 C   0  0  0  0  0  0  0  0  0  0  0  0
   -5.7263   -5.1856  -23.4757 C   0  0  0  0  0  0  0  0  0  0  0  0
   -4.6245   -5.9481  -23.1876 N   0  0  0  0  0  0  0  0  0  0  0  0
   -4.9454   -7.0174  -22.5369 C   0  0  0  0  0  0  0  0  0  0  0  0
   -3.9551   -8.0328  -22.0840 C   0  0  0  0  0  0  0  0  0  0  0  0
   -6.6464   -7.1924  -22.2141 S   0  0  0  0  0  0  0  0  0  0  0  0
  -10.5764   -1.3080  -23.0442 C   0  0  0  0  0  0  0  0  0  0  0  0
  -11.4694   -2.2672  -22.5554 C   0  0  0  0  0  0  0  0  0  0  0  0
  -12.8245   -1.9912  -22.5140 C   0  0  0  0  0  0  0  0  0  0  0  0
  -13.8722   -3.1315  -21.7151 Cl  0  0  0  0  0  0  0  0  0  0  0  0
  -13.3598   -0.8087  -23.0249 C   0  0  0  0  0  0  0  0  0  0  0  0
  -12.4939    0.1056  -23.5883 C   0  0  0  0  0  0  0  0  0  0  0  0
  -11.1253   -0.1502  -23.6130 C   0  0  0  0  0  0  0  0  0  0  0  0
  -10.2496    0.8731  -24.2512 C   0  0  0  0  0  0  0  0  0  0  0  0
  -10.6370    2.0158  -24.4747 O   0  0  0  0  0  0  0  0  0  0  0  0
   -7.1481    3.3873  -21.4226 H   0  0  0  0  0  0  0  0  0  0  0  0
   -7.3198    4.6741  -22.6503 H   0  0  0  0  0  0  0  0  0  0  0  0
   -5.9590    3.5514  -22.7446 H   0  0  0  0  0  0  0  0  0  0  0  0
   -8.3087    1.9766  -22.7432 H   0  0  0  0  0  0  0  0  0  0  0  0
   -8.7466    1.7982  -26.1339 H   0  0  0  0  0  0  0  0  0  0  0  0
   -7.3493    0.7919  -25.7828 H   0  0  0  0  0  0  0  0  0  0  0  0
   -7.4107   -0.8590  -24.2464 H   0  0  0  0  0  0  0  0  0  0  0  0
   -8.8048   -1.5640  -25.1007 H   0  0  0  0  0  0  0  0  0  0  0  0
   -7.7437   -1.7769  -18.5736 H   0  0  0  0  0  0  0  0  0  0  0  0
   -4.4870    0.3334  -17.1698 H   0  0  0  0  0  0  0  0  0  0  0  0
   -3.1130    1.7192  -18.6631 H   0  0  0  0  0  0  0  0  0  0  0  0
   -2.5033    2.4481  -20.9513 H   0  0  0  0  0  0  0  0  0  0  0  0
   -3.7837    1.6110  -22.9075 H   0  0  0  0  0  0  0  0  0  0  0  0
   -5.7047    0.1236  -22.5913 H   0  0  0  0  0  0  0  0  0  0  0  0
   -6.9812   -3.3781  -21.1021 H   0  0  0  0  0  0  0  0  0  0  0  0
   -6.3636   -2.5071  -22.5142 H   0  0  0  0  0  0  0  0  0  0  0  0
   -9.2190   -3.2110  -21.7882 H   0  0  0  0  0  0  0  0  0  0  0  0
   -7.6501   -3.5661  -24.3754 H   0  0  0  0  0  0  0  0  0  0  0  0
   -9.3804   -3.8439  -24.2626 H   0  0  0  0  0  0  0  0  0  0  0  0
   -8.9381   -5.7205  -22.8248 H   0  0  0  0  0  0  0  0  0  0  0  0
   -5.5872   -4.2592  -24.0175 H   0  0  0  0  0  0  0  0  0  0  0  0
   -3.8521   -8.8352  -22.8215 H   0  0  0  0  0  0  0  0  0  0  0  0
   -4.2413   -8.4915  -21.1372 H   0  0  0  0  0  0  0  0  0  0  0  0
   -2.9859   -7.5437  -21.9801 H   0  0  0  0  0  0  0  0  0  0  0  0
  -11.1309   -3.2173  -22.1576 H   0  0  0  0  0  0  0  0  0  0  0  0
  -14.4263   -0.6189  -22.9552 H   0  0  0  0  0  0  0  0  0  0  0  0
  -12.8540    1.0456  -23.9930 H   0  0  0  0  0  0  0  0  0  0  0  0
  1  2  1  0
  2  3  1  0
  3  4  2  0
  3  5  1  0
  5  6  1  0
  6  7  1  0
  8  7  1  6
  8  9  1  0
  9 10  2  0
  9 11  1  0
 11 12  1  0
 12 13  2  0
 13 14  1  0
 14 15  2  0
 15 16  1  0
 16 17  2  0
 17 18  1  0
 18 19  2  0
 19 20  1  0
 20 21  2  0
 11 22  1  0
 22 23  1  0
 23 24  1  0
 24 25  1  0
 25 26  1  0
 26 27  2  0
 27 28  1  0
 28 29  2  0
 29 30  1  0
 29 31  1  0
  8 32  1  0
 32 33  2  0
 33 34  1  0
 34 35  1  0
 34 36  2  0
 36 37  1  0
 37 38  2  0
 38 39  1  0
 39 40  2  0
 39  6  1  0
 23  8  1  0
 31 26  1  0
 38 32  1  0
 21 12  1  0
 21 16  1  0
  1 41  1  0
  1 42  1  0
  1 43  1  0
  2 44  1  0
  5 45  1  0
  5 46  1  0
  7 47  1  0
  7 48  1  0
 13 49  1  0
 15 50  1  0
 17 51  1  0
 18 52  1  0
 19 53  1  0
 20 54  1  0
 22 55  1  0
 22 56  1  0
 23 57  1  1
 24 58  1  0
 24 59  1  0
 25 60  1  0
 27 61  1  0
 30 62  1  0
 30 63  1  0
 30 64  1  0
 33 65  1  0
 36 66  1  0
 37 67  1  0
M  END
