
     RDKit          3D

 67 72  0  0  0  0  0  0  0  0999 V2000
    7.2910    4.6523   22.3776 C   0  0  0  0  0  0  0  0  0  0  0  0
    8.1018    3.7350   23.1523 N   0  0  0  0  0  0  0  0  0  0  0  0
    7.8418    3.5854   24.4706 C   0  0  0  0  0  0  0  0  0  0  0  0
    7.0656    4.2992   25.0924 O   0  0  0  0  0  0  0  0  0  0  0  0
    8.5563    2.4604   25.2239 C   0  0  0  0  0  0  0  0  0  0  0  0
    9.3874    1.5713   24.4540 N   0  0  0  0  0  0  0  0  0  0  0  0
    8.9417    0.2070   24.2179 C   0  0  0  0  0  0  0  0  0  0  0  0
    9.4879   -0.3363   22.8710 C   0  0  2  0  0  0  0  0  0  0  0  0
    8.8315    0.4665   21.7182 C   0  0  0  0  0  0  0  0  0  0  0  0
    9.0803    1.6170   21.4158 O   0  0  0  0  0  0  0  0  0  0  0  0
    7.8734   -0.3152   21.1112 N   0  0  0  0  0  0  0  0  0  0  0  0
    6.9927    0.1677   20.1011 C   0  0  0  0  0  0  0  0  0  0  0  0
    7.2065   -0.1974   18.7950 C   0  0  0  0  0  0  0  0  0  0  0  0
    6.4073    0.1504   17.7559 N   0  0  0  0  0  0  0  0  0  0  0  0
    5.3666    0.9035   18.0132 C   0  0  0  0  0  0  0  0  0  0  0  0
    5.0360    1.3762   19.3155 C   0  0  0  0  0  0  0  0  0  0  0  0
    3.9333    2.2431   19.5352 C   0  0  0  0  0  0  0  0  0  0  0  0
    3.6155    2.6532   20.7993 C   0  0  0  0  0  0  0  0  0  0  0  0
    4.3823    2.2188   21.9027 C   0  0  0  0  0  0  0  0  0  0  0  0
    5.4814    1.4168   21.7125 C   0  0  0  0  0  0  0  0  0  0  0  0
    5.8531    0.9863   20.4063 C   0  0  0  0  0  0  0  0  0  0  0  0
    7.6498   -1.5677   21.8063 C   0  0  0  0  0  0  0  0  0  0  0  0
    8.9920   -1.7579   22.5171 C   0  0  2  0  0  0  0  0  0  0  0  0
    8.9550   -2.7636   23.6640 C   0  0  0  0  0  0  0  0  0  0  0  0
    8.7171   -4.1161   23.2310 N   0  0  0  0  0  0  0  0  0  0  0  0
    7.4652   -4.6451   23.0868 C   0  0  0  0  0  0  0  0  0  0  0  0
    6.2665   -4.1788   23.5357 C   0  0  0  0  0  0  0  0  0  0  0  0
    5.1805   -4.9761   23.2841 N   0  0  0  0  0  0  0  0  0  0  0  0
    5.5170   -6.0465   22.6432 C   0  0  0  0  0  0  0  0  0  0  0  0
    4.5459   -7.0962   22.2283 C   0  0  0  0  0  0  0  0  0  0  0  0
    7.2148   -6.1796   22.2855 S   0  0  0  0  0  0  0  0  0  0  0  0
   10.9954   -0.1759   22.9360 C   0  0  0  0  0  0  0  0  0  0  0  0
   11.9041   -1.1178   22.4425 C   0  0  0  0  0  0  0  0  0  0  0  0
   13.2497   -0.8051   22.3667 C   0  0  0  0  0  0  0  0  0  0  0  0
   14.3113   -1.9288   21.5627 Cl  0  0  0  0  0  0  0  0  0  0  0  0
   13.7626    0.3999   22.8471 C   0  0  0  0  0  0  0  0  0  0  0  0
   12.8839    1.2989   23.4152 C   0  0  0  0  0  0  0  0  0  0  0  0
   11.5238    1.0058   23.4743 C   0  0  0  0  0  0  0  0  0  0  0  0
   10.6339    2.0146   24.1157 C   0  0  0  0  0  0  0  0  0  0  0  0
   10.9939    3.1711   24.3127 O   0  0  0  0  0  0  0  0  0  0  0  0
    7.4023    4.3957   21.3178 H   0  0  0  0  0  0  0  0  0  0  0  0
    7.5645    5.7065   22.5211 H   0  0  0  0  0  0  0  0  0  0  0  0
    6.2381    4.5483   22.6631 H   0  0  0  0  0  0  0  0  0  0  0  0
    8.6304    3.0393   22.6341 H   0  0  0  0  0  0  0  0  0  0  0  0
    9.1469    2.9282   26.0167 H   0  0  0  0  0  0  0  0  0  0  0  0
    7.7710    1.8780   25.7124 H   0  0  0  0  0  0  0  0  0  0  0  0
    7.8453    0.2047   24.2011 H   0  0  0  0  0  0  0  0  0  0  0  0
    9.2768   -0.4474   25.0351 H   0  0  0  0  0  0  0  0  0  0  0  0
    8.0803   -0.7956   18.5373 H   0  0  0  0  0  0  0  0  0  0  0  0
    4.7359    1.2006   17.1734 H   0  0  0  0  0  0  0  0  0  0  0  0
    3.3564    2.5719   18.6750 H   0  0  0  0  0  0  0  0  0  0  0  0
    2.7765    3.3207   20.9645 H   0  0  0  0  0  0  0  0  0  0  0  0
    4.1221    2.5513   22.9046 H   0  0  0  0  0  0  0  0  0  0  0  0
    6.0767    1.1127   22.5691 H   0  0  0  0  0  0  0  0  0  0  0  0
    7.4182   -2.3760   21.1068 H   0  0  0  0  0  0  0  0  0  0  0  0
    6.8073   -1.4996   22.5185 H   0  0  0  0  0  0  0  0  0  0  0  0
    9.6649   -2.1359   21.7403 H   0  0  0  0  0  0  0  0  0  0  0  0
    8.1632   -2.4922   24.3670 H   0  0  0  0  0  0  0  0  0  0  0  0
    9.8978   -2.7238   24.2201 H   0  0  0  0  0  0  0  0  0  0  0  0
    9.4771   -4.6350   22.8220 H   0  0  0  0  0  0  0  0  0  0  0  0
    6.1133   -3.2479   24.0659 H   0  0  0  0  0  0  0  0  0  0  0  0
    4.4816   -7.8890   22.9804 H   0  0  0  0  0  0  0  0  0  0  0  0
    4.8242   -7.5621   21.2827 H   0  0  0  0  0  0  0  0  0  0  0  0
    3.5614   -6.6359   22.1383 H   0  0  0  0  0  0  0  0  0  0  0  0
   11.5838   -2.0832   22.0672 H   0  0  0  0  0  0  0  0  0  0  0  0
   14.8216    0.6180   22.7507 H   0  0  0  0  0  0  0  0  0  0  0  0
   13.2262    2.2550   23.7971 H   0  0  0  0  0  0  0  0  0  0  0  0
  1  2  1  0
  2  3  1  0
  3  4  2  0
  3  5  1  0
  5  6  1  0
  6  7  1  0
  8  7  1  1
  8  9  1  0
  9 10  2  0
  9 11  1  0
 11 12  1  0
 12 13  2  0
 13 14  1  0
 14 15  2  0
 15 16  1  0
 16 17  2  0
 17 18  1  0
 18 19  2  0
 19 20  1  0
 20 21  2  0
 11 22  1  0
 22 23  1  0
 23 24  1  0
 24 25  1  0
 25 26  1  0
 26 27  2  0
 27 28  1  0
 28 29  2  0
 29 30  1  0
 29 31  1  0
  8 32  1  0
 32 33  2  0
 33 34  1  0
 34 35  1  0
 34 36  2  0
 36 37  1  0
 37 38  2  0
 38 39  1  0
 39 40  2  0
 39  6  1  0
 23  8  1  0
 31 26  1  0
 38 32  1  0
 21 12  1  0
 21 16  1  0
  1 41  1  0
  1 42  1  0
  1 43  1  0
  2 44  1  0
  5 45  1  0
  5 46  1  0
  7 47  1  0
  7 48  1  0
 13 49  1  0
 15 50  1  0
 17 51  1  0
 18 52  1  0
 19 53  1  0
 20 54  1  0
 22 55  1  0
 22 56  1  0
 23 57  1  6
 24 58  1  0
 24 59  1  0
 25 60  1  0
 27 61  1  0
 30 62  1  0
 30 63  1  0
 30 64  1  0
 33 65  1  0
 36 66  1  0
 37 67  1  0
M  END
$$$$
