
     RDKit          3D

 40 43  0  0  0  0  0  0  0  0999 V2000
   -7.7685    1.3166  -25.3955 C   0  0  0  0  0  0  0  0  0  0  0  0
   -8.5386    0.4738  -24.3757 C   0  0  1  0  0  0  0  0  0  0  0  0
  -10.0386    0.2838  -24.6358 C   0  0  0  0  0  0  0  0  0  0  0  0
  -10.7052   -0.3337  -23.5496 O   0  0  0  0  0  0  0  0  0  0  0  0
  -10.1964   -1.5915  -23.1748 C   0  0  0  0  0  0  0  0  0  0  0  0
   -8.6828   -1.5656  -22.9761 C   0  0  2  0  0  0  0  0  0  0  0  0
   -7.9833   -0.9364  -24.1921 C   0  0  0  0  0  0  0  0  0  0  0  0
   -8.1650   -2.8746  -22.6157 N   0  0  0  0  0  0  0  0  0  0  0  0
   -7.1411   -2.7738  -21.6922 C   0  0  0  0  0  0  0  0  0  0  0  0
   -6.2848   -3.5833  -21.4327 O   0  0  0  0  0  0  0  0  0  0  0  0
   -7.2666   -1.4971  -21.1233 N   0  0  0  0  0  0  0  0  0  0  0  0
   -6.4720   -0.9922  -20.0599 C   0  0  0  0  0  0  0  0  0  0  0  0
   -6.8555   -1.2498  -18.7739 C   0  0  0  0  0  0  0  0  0  0  0  0
   -6.2064   -0.7927  -17.6754 N   0  0  0  0  0  0  0  0  0  0  0  0
   -5.1659   -0.0166  -17.8583 C   0  0  0  0  0  0  0  0  0  0  0  0
   -4.6862    0.3623  -19.1471 C   0  0  0  0  0  0  0  0  0  0  0  0
   -3.6042    1.2649  -19.3024 C   0  0  0  0  0  0  0  0  0  0  0  0
   -3.1640    1.6144  -20.5509 C   0  0  0  0  0  0  0  0  0  0  0  0
   -3.7649    1.0517  -21.6972 C   0  0  0  0  0  0  0  0  0  0  0  0
   -4.8236    0.1877  -21.5748 C   0  0  0  0  0  0  0  0  0  0  0  0
   -5.3338   -0.1547  -20.2903 C   0  0  0  0  0  0  0  0  0  0  0  0
   -8.2832   -0.7742  -21.7371 C   0  0  0  0  0  0  0  0  0  0  0  0
   -8.7170    0.2800  -21.3596 O   0  0  0  0  0  0  0  0  0  0  0  0
   -8.2048    2.3174  -25.4945 H   0  0  0  0  0  0  0  0  0  0  0  0
   -6.7356    1.4657  -25.0526 H   0  0  0  0  0  0  0  0  0  0  0  0
   -7.7277    0.8591  -26.3892 H   0  0  0  0  0  0  0  0  0  0  0  0
   -8.4439    0.9977  -23.4219 H   0  0  0  0  0  0  0  0  0  0  0  0
  -10.1873   -0.3063  -25.5576 H   0  0  0  0  0  0  0  0  0  0  0  0
  -10.5606    1.2344  -24.7571 H   0  0  0  0  0  0  0  0  0  0  0  0
  -10.4108   -2.3807  -23.9103 H   0  0  0  0  0  0  0  0  0  0  0  0
  -10.6643   -1.8841  -22.2302 H   0  0  0  0  0  0  0  0  0  0  0  0
   -8.1368   -1.5577  -25.0853 H   0  0  0  0  0  0  0  0  0  0  0  0
   -6.9008   -0.9279  -24.0202 H   0  0  0  0  0  0  0  0  0  0  0  0
   -8.0178   -3.5508  -23.3493 H   0  0  0  0  0  0  0  0  0  0  0  0
   -7.7420   -1.8568  -18.6036 H   0  0  0  0  0  0  0  0  0  0  0  0
   -4.6685    0.3826  -16.9706 H   0  0  0  0  0  0  0  0  0  0  0  0
   -3.1405    1.6724  -18.4108 H   0  0  0  0  0  0  0  0  0  0  0  0
   -2.3549    2.3291  -20.6675 H   0  0  0  0  0  0  0  0  0  0  0  0
   -3.3863    1.3127  -22.6821 H   0  0  0  0  0  0  0  0  0  0  0  0
   -5.2896   -0.2337  -22.4594 H   0  0  0  0  0  0  0  0  0  0  0  0
  1  2  1  0
  2  3  1  0
  3  4  1  0
  4  5  1  0
  5  6  1  0
  6  7  1  0
  6  8  1  1
  8  9  1  0
  9 10  2  0
  9 11  1  0
 11 12  1  0
 12 13  2  0
 13 14  1  0
 14 15  2  0
 15 16  1  0
 16 17  2  0
 17 18  1  0
 18 19  2  0
 19 20  1  0
 20 21  2  0
 11 22  1  0
 22 23  2  0
  7  2  1  0
 21 12  1  0
 22  6  1  0
 21 16  1  0
  1 24  1  0
  1 25  1  0
  1 26  1  0
  2 27  1  1
  3 28  1  0
  3 29  1  0
  5 30  1  0
  5 31  1  0
  7 32  1  0
  7 33  1  0
  8 34  1  0
 13 35  1  0
 15 36  1  0
 17 37  1  0
 18 38  1  0
 19 39  1  0
 20 40  1  0
M  END
