
     RDKit          3D

 57 62  0  0  0  0  0  0  0  0999 V2000
    8.9246   -2.7667   23.6970 C   0  0  0  0  0  0  0  0  0  0  0  0
    8.9556   -1.7574   22.5596 C   0  0  1  0  0  0  0  0  0  0  0  0
    7.6313   -1.5603   21.8209 C   0  0  0  0  0  0  0  0  0  0  0  0
    7.8671   -0.3115   21.1206 N   0  0  0  0  0  0  0  0  0  0  0  0
    6.9953    0.1594   20.0997 C   0  0  0  0  0  0  0  0  0  0  0  0
    7.1835   -0.2395   18.7980 C   0  0  0  0  0  0  0  0  0  0  0  0
    6.3569    0.0700   17.7683 N   0  0  0  0  0  0  0  0  0  0  0  0
    5.3103    0.8120   18.0296 C   0  0  0  0  0  0  0  0  0  0  0  0
    5.0087    1.3208   19.3240 C   0  0  0  0  0  0  0  0  0  0  0  0
    3.9093    2.1920   19.5381 C   0  0  0  0  0  0  0  0  0  0  0  0
    3.6196    2.6435   20.7958 C   0  0  0  0  0  0  0  0  0  0  0  0
    4.4012    2.2272   21.8964 C   0  0  0  0  0  0  0  0  0  0  0  0
    5.4850    1.4049   21.7110 C   0  0  0  0  0  0  0  0  0  0  0  0
    5.8423    0.9574   20.4062 C   0  0  0  0  0  0  0  0  0  0  0  0
    8.8133    0.4813   21.7472 C   0  0  0  0  0  0  0  0  0  0  0  0
    9.0712    1.6182   21.4212 O   0  0  0  0  0  0  0  0  0  0  0  0
    9.4427   -0.3347   22.9152 C   0  0  1  0  0  0  0  0  0  0  0  0
    8.8835    0.2102   24.2640 C   0  0  0  0  0  0  0  0  0  0  0  0
    9.3140    1.5825   24.4860 N   0  0  0  0  0  0  0  0  0  0  0  0
    8.4650    2.4995   25.2181 C   0  0  0  0  0  0  0  0  0  0  0  0
    8.4782    2.3388   26.7123 C   0  0  0  0  0  0  0  0  0  0  0  0
    9.0341    3.1806   27.5601 N   0  0  0  0  0  0  0  0  0  0  0  0
    8.8092    2.6930   28.7892 N   0  0  0  0  0  0  0  0  0  0  0  0
    8.1216    1.6097   28.7308 N   0  0  0  0  0  0  0  0  0  0  0  0
    7.8851    1.3634   27.4290 N   0  0  0  0  0  0  0  0  0  0  0  0
    6.9579    0.3146   27.0517 C   0  0  0  0  0  0  0  0  0  0  0  0
   10.5418    2.0461   24.0935 C   0  0  0  0  0  0  0  0  0  0  0  0
   10.8850    3.2130   24.2385 O   0  0  0  0  0  0  0  0  0  0  0  0
   11.4568    1.0346   23.4840 C   0  0  0  0  0  0  0  0  0  0  0  0
   12.8155    1.3387   23.4410 C   0  0  0  0  0  0  0  0  0  0  0  0
   13.7186    0.4141   22.9611 C   0  0  0  0  0  0  0  0  0  0  0  0
   13.2257   -0.8155   22.5399 C   0  0  0  0  0  0  0  0  0  0  0  0
   14.0991   -1.7207   22.0638 F   0  0  0  0  0  0  0  0  0  0  0  0
   11.8818   -1.1397   22.5739 C   0  0  0  0  0  0  0  0  0  0  0  0
   10.9543   -0.1770   22.9964 C   0  0  0  0  0  0  0  0  0  0  0  0
    8.6663   -3.7644   23.3225 H   0  0  0  0  0  0  0  0  0  0  0  0
    9.9072   -2.8155   24.1821 H   0  0  0  0  0  0  0  0  0  0  0  0
    8.1844   -2.4801   24.4547 H   0  0  0  0  0  0  0  0  0  0  0  0
    9.6413   -2.1100   21.7819 H   0  0  0  0  0  0  0  0  0  0  0  0
    6.7793   -1.4965   22.5201 H   0  0  0  0  0  0  0  0  0  0  0  0
    7.4268   -2.3649   21.1092 H   0  0  0  0  0  0  0  0  0  0  0  0
    8.0383   -0.8618   18.5380 H   0  0  0  0  0  0  0  0  0  0  0  0
    4.6416    1.0531   17.2024 H   0  0  0  0  0  0  0  0  0  0  0  0
    3.3274    2.5054   18.6758 H   0  0  0  0  0  0  0  0  0  0  0  0
    2.7928    3.3298   20.9540 H   0  0  0  0  0  0  0  0  0  0  0  0
    4.1461    2.5706   22.8940 H   0  0  0  0  0  0  0  0  0  0  0  0
    6.0862    1.1019   22.5644 H   0  0  0  0  0  0  0  0  0  0  0  0
    9.2499   -0.4184   25.0908 H   0  0  0  0  0  0  0  0  0  0  0  0
    7.7845    0.1987   24.2743 H   0  0  0  0  0  0  0  0  0  0  0  0
    8.8536    3.4983   25.0075 H   0  0  0  0  0  0  0  0  0  0  0  0
    7.4313    2.4127   24.8541 H   0  0  0  0  0  0  0  0  0  0  0  0
    6.1233    0.7295   26.4794 H   0  0  0  0  0  0  0  0  0  0  0  0
    6.5587   -0.0931   27.9786 H   0  0  0  0  0  0  0  0  0  0  0  0
    7.4590   -0.4805   26.4889 H   0  0  0  0  0  0  0  0  0  0  0  0
   13.1314    2.3063   23.8162 H   0  0  0  0  0  0  0  0  0  0  0  0
   14.7805    0.6252   22.9066 H   0  0  0  0  0  0  0  0  0  0  0  0
   11.5871   -2.1315   22.2544 H   0  0  0  0  0  0  0  0  0  0  0  0
  1  2  1  0
  2  3  1  0
  3  4  1  0
  4  5  1  0
  5  6  2  0
  6  7  1  0
  7  8  2  0
  8  9  1  0
  9 10  2  0
 10 11  1  0
 11 12  2  0
 12 13  1  0
 13 14  2  0
  4 15  1  0
 15 16  2  0
 15 17  1  0
 17 18  1  1
 18 19  1  0
 19 20  1  0
 20 21  1  0
 21 22  2  0
 22 23  1  0
 23 24  2  0
 24 25  1  0
 25 26  1  0
 19 27  1  0
 27 28  2  0
 27 29  1  0
 29 30  2  0
 30 31  1  0
 31 32  2  0
 32 33  1  0
 32 34  1  0
 34 35  2  0
 17  2  1  0
 25 21  1  0
 35 29  1  0
 14  5  1  0
 35 17  1  0
 14  9  1  0
  1 36  1  0
  1 37  1  0
  1 38  1  0
  2 39  1  6
  3 40  1  0
  3 41  1  0
  6 42  1  0
  8 43  1  0
 10 44  1  0
 11 45  1  0
 12 46  1  0
 13 47  1  0
 18 48  1  0
 18 49  1  0
 20 50  1  0
 20 51  1  0
 26 52  1  0
 26 53  1  0
 26 54  1  0
 30 55  1  0
 31 56  1  0
 34 57  1  0
M  END
$$$$
