LIG(A-305)
     RDKit          3D

 40 43  0  0  1  0  0  0  0  0999 V2000
    8.4927    0.9587   21.3751 O   0  0  0  0  0  0  0  0  0  0  0  0
    8.1926   -0.2163   21.5352 C   0  0  0  0  0  0  0  0  0  0  0  0
    8.6315   -0.9942   22.8272 C   0  0  1  0  0  0  0  0  0  0  0  0
   10.0646   -0.5823   23.1582 C   0  0  0  0  0  0  0  0  0  0  0  0
   11.1645   -1.2905   22.6822 C   0  0  0  0  0  0  0  0  0  0  0  0
   12.4106   -0.6946   22.7091 C   0  0  0  0  0  0  0  0  0  0  0  0
   13.7634   -1.5409   22.0151 Cl  0  0  0  0  0  0  0  0  0  0  0  0
   12.6067    0.5604   23.2460 C   0  0  0  0  0  0  0  0  0  0  0  0
   11.5298    1.2435   23.7810 C   0  0  0  0  0  0  0  0  0  0  0  0
   10.2548    0.6797   23.7360 C   0  0  0  0  0  0  0  0  0  0  0  0
    9.1519    1.4018   24.2000 N   0  0  0  0  0  0  0  0  0  0  0  0
    7.8888    0.9290   24.2521 C   0  0  0  0  0  0  0  0  0  0  0  0
    6.9279    1.6761   24.4371 O   0  0  0  0  0  0  0  0  0  0  0  0
    7.7046   -0.5400   23.9692 C   0  0  2  0  0  0  0  0  0  0  0  0
    8.5114   -2.4072   22.7094 O   0  0  0  0  0  0  0  0  0  0  0  0
    7.5295   -0.8983   20.5823 N   0  0  0  0  0  0  0  0  0  0  0  0
    6.5825   -0.4622   19.6373 C   0  0  0  0  0  0  0  0  0  0  0  0
    5.5796    0.5009   19.9912 C   0  0  0  0  0  0  0  0  0  0  0  0
    5.0377    0.6351   21.2973 C   0  0  0  0  0  0  0  0  0  0  0  0
    4.0158    1.5072   21.5492 C   0  0  0  0  0  0  0  0  0  0  0  0
    3.4868    2.2902   20.5352 C   0  0  0  0  0  0  0  0  0  0  0  0
    3.9748    2.2030   19.2642 C   0  0  0  0  0  0  0  0  0  0  0  0
    5.0236    1.3039   18.9542 C   0  0  0  0  0  0  0  0  0  0  0  0
    5.5076    1.1107   17.6402 C   0  0  0  0  0  0  0  0  0  0  0  0
    6.4025    0.1956   17.3072 N   0  0  0  0  0  0  0  0  0  0  0  0
    6.8874   -0.5774   18.2853 C   0  0  0  0  0  0  0  0  0  0  0  0
   11.0453   -2.2924   22.2970 H   0  0  0  0  0  0  0  0  0  0  0  0
   13.5910    1.0051   23.2486 H   0  0  0  0  0  0  0  0  0  0  0  0
   11.6761    2.2133   24.2334 H   0  0  0  0  0  0  0  0  0  0  0  0
    9.3101    2.3371   24.5166 H   0  0  0  0  0  0  0  0  0  0  0  0
    7.9411   -1.1150   24.8767 H   0  0  0  0  0  0  0  0  0  0  0  0
    6.6592   -0.7239   23.6807 H   0  0  0  0  0  0  0  0  0  0  0  0
    7.6689   -2.6834   23.0506 H   0  0  0  0  0  0  0  0  0  0  0  0
    7.7452   -1.8738   20.5391 H   0  0  0  0  0  0  0  0  0  0  0  0
    5.4391    0.0390   22.1035 H   0  0  0  0  0  0  0  0  0  0  0  0
    3.6161    1.5870   22.5493 H   0  0  0  0  0  0  0  0  0  0  0  0
    2.6811    2.9755   20.7533 H   0  0  0  0  0  0  0  0  0  0  0  0
    3.5570    2.8258   18.4870 H   0  0  0  0  0  0  0  0  0  0  0  0
    5.1226    1.7502   16.8597 H   0  0  0  0  0  0  0  0  0  0  0  0
    7.5758   -1.3592   18.0001 H   0  0  0  0  0  0  0  0  0  0  0  0
  1  2  2  0
  2  3  1  0
  2 16  1  0
  3  4  1  0
  3 14  1  0
  3 15  1  6
  4  5  1  0
  4 10  2  0
  5  6  2  0
  5 27  1  0
  6  7  1  0
  6  8  1  0
  8  9  2  0
  8 28  1  0
  9 10  1  0
  9 29  1  0
 10 11  1  0
 11 12  1  0
 11 30  1  0
 12 13  2  0
 12 14  1  0
 14 31  1  1
 14 32  1  0
 15 33  1  0
 16 17  1  0
 16 34  1  0
 17 18  2  0
 17 26  1  0
 18 19  1  0
 18 23  1  0
 19 20  2  0
 19 35  1  0
 20 21  1  0
 20 36  1  0
 21 22  2  0
 21 37  1  0
 22 23  1  0
 22 38  1  0
 23 24  2  0
 24 25  1  0
 24 39  1  0
 25 26  2  0
 26 40  1  0
M  END
$$$$
