LIG(A-306)
     RDKit          3D

 54 57  0  0  1  0  0  0  0  0999 V2000
   14.0247   -1.6204   21.4298 Cl  0  0  0  0  0  0  0  0  0  0  0  0
   12.8526   -0.7938   22.4219 C   0  0  0  0  0  0  0  0  0  0  0  0
   11.5190   -1.1483   22.3292 C   0  0  0  0  0  0  0  0  0  0  0  0
   13.2780    0.1971   23.2717 C   0  0  0  0  0  0  0  0  0  0  0  0
   12.3525    0.8290   24.0789 C   0  0  0  0  0  0  0  0  0  0  0  0
   10.9992    0.5055   24.0173 C   0  0  0  0  0  0  0  0  0  0  0  0
   10.0712    1.2328   24.9642 C   0  0  1  0  0  0  0  0  0  0  0  0
    8.6508    0.9704   24.7004 N   0  0  0  0  0  0  0  0  0  0  0  0
    7.4464    1.9341   25.1297 S   0  0  1  0  0  0  0  0  0  0  0  0
    6.2413    1.3867   24.6088 O   0  0  0  0  0  0  0  0  0  0  0  0
    7.5911    2.1627   26.5252 O   0  0  0  0  0  0  0  0  0  0  0  0
    7.7688    3.3017   24.3621 N   0  0  0  0  0  0  0  0  0  0  0  0
    8.2868    4.4274   25.1476 C   0  0  1  0  0  0  0  0  0  0  0  0
    7.5496    3.5795   22.9298 C   0  0  1  0  0  0  0  0  0  0  0  0
    6.3206    4.4196   22.6877 C   0  0  1  0  0  0  0  0  0  0  0  0
   10.5731   -0.4799   23.1113 C   0  0  0  0  0  0  0  0  0  0  0  0
    9.0943   -0.7765   22.9498 C   0  0  1  0  0  0  0  0  0  0  0  0
    8.3257   -0.3818   24.2103 C   0  0  2  0  0  0  0  0  0  0  0  0
    8.5680   -0.0340   21.7175 C   0  0  0  0  0  0  0  0  0  0  0  0
    9.1307    0.9634   21.2591 O   0  0  0  0  0  0  0  0  0  0  0  0
    7.4182   -0.5407   21.2001 N   0  0  0  0  0  0  0  0  0  0  0  0
    6.6783   -0.0378   20.1035 C   0  0  0  0  0  0  0  0  0  0  0  0
    5.5423    0.7966   20.3626 C   0  0  0  0  0  0  0  0  0  0  0  0
    4.9958    1.0098   21.6556 C   0  0  0  0  0  0  0  0  0  0  0  0
    3.8871    1.7864   21.8313 C   0  0  0  0  0  0  0  0  0  0  0  0
    3.2723    2.3993   20.7463 C   0  0  0  0  0  0  0  0  0  0  0  0
    3.7625    2.2304   19.4827 C   0  0  0  0  0  0  0  0  0  0  0  0
    4.9012    1.4188   19.2531 C   0  0  0  0  0  0  0  0  0  0  0  0
    5.4132    1.1500   17.9591 C   0  0  0  0  0  0  0  0  0  0  0  0
    6.4491    0.3566   17.7181 N   0  0  0  0  0  0  0  0  0  0  0  0
    7.0562   -0.2114   18.7709 C   0  0  0  0  0  0  0  0  0  0  0  0
   11.2108   -1.9358   21.6574 H   0  0  0  0  0  0  0  0  0  0  0  0
   14.3201    0.4781   23.3085 H   0  0  0  0  0  0  0  0  0  0  0  0
   12.6845    1.5887   24.7711 H   0  0  0  0  0  0  0  0  0  0  0  0
   10.3004    0.9136   25.9917 H   0  0  0  0  0  0  0  0  0  0  0  0
   10.2505    2.3138   24.8673 H   0  0  0  0  0  0  0  0  0  0  0  0
    8.4582    5.2890   24.4856 H   0  0  0  0  0  0  0  0  0  0  0  0
    7.5558    4.7005   25.9229 H   0  0  0  0  0  0  0  0  0  0  0  0
    9.2349    4.1367   25.6237 H   0  0  0  0  0  0  0  0  0  0  0  0
    8.4263    4.1144   22.5357 H   0  0  0  0  0  0  0  0  0  0  0  0
    7.4340    2.6234   22.3984 H   0  0  0  0  0  0  0  0  0  0  0  0
    6.2037    4.5967   21.6083 H   0  0  0  0  0  0  0  0  0  0  0  0
    5.4346    3.8919   23.0705 H   0  0  0  0  0  0  0  0  0  0  0  0
    6.4269    5.3830   23.2078 H   0  0  0  0  0  0  0  0  0  0  0  0
    8.9673   -1.8569   22.7866 H   0  0  0  0  0  0  0  0  0  0  0  0
    7.2491   -0.4217   23.9880 H   0  0  0  0  0  0  0  0  0  0  0  0
    8.5633   -1.1059   25.0035 H   0  0  0  0  0  0  0  0  0  0  0  0
    7.0544   -1.3599   21.6435 H   0  0  0  0  0  0  0  0  0  0  0  0
    5.4645    0.5504   22.5133 H   0  0  0  0  0  0  0  0  0  0  0  0
    3.4837    1.9258   22.8233 H   0  0  0  0  0  0  0  0  0  0  0  0
    2.3990    3.0149   20.9036 H   0  0  0  0  0  0  0  0  0  0  0  0
    3.2778    2.7198   18.6509 H   0  0  0  0  0  0  0  0  0  0  0  0
    4.9295    1.6207   17.1160 H   0  0  0  0  0  0  0  0  0  0  0  0
    7.9023   -0.8523   18.5722 H   0  0  0  0  0  0  0  0  0  0  0  0
  1  2  1  0
  2  3  2  0
  2  4  1  0
  3 16  1  0
  3 32  1  0
  4  5  2  0
  4 33  1  0
  5  6  1  0
  5 34  1  0
  6  7  1  0
  6 16  2  0
  7  8  1  0
  7 35  1  1
  7 36  1  0
  8  9  1  0
  8 18  1  0
  9 10  2  0
  9 11  2  0
  9 12  1  6
 12 13  1  0
 12 14  1  0
 13 37  1  6
 13 38  1  0
 13 39  1  0
 14 15  1  0
 14 40  1  6
 14 41  1  0
 15 42  1  6
 15 43  1  0
 15 44  1  0
 16 17  1  0
 17 18  1  0
 17 19  1  0
 17 45  1  6
 18 46  1  6
 18 47  1  0
 19 20  2  0
 19 21  1  0
 21 22  1  0
 21 48  1  0
 22 23  2  0
 22 31  1  0
 23 24  1  0
 23 28  1  0
 24 25  2  0
 24 49  1  0
 25 26  1  0
 25 50  1  0
 26 27  2  0
 26 51  1  0
 27 28  1  0
 27 52  1  0
 28 29  2  0
 29 30  1  0
 29 53  1  0
 30 31  2  0
 31 54  1  0
M  END
$$$$
