LIG(A-306)
     RDKit          3D

 61 65  0  0  1  0  0  0  0  0999 V2000
   13.7614   -1.4972   21.8170 Cl  0  0  0  0  0  0  0  0  0  0  0  0
   12.4695   -0.6809   22.6359 C   0  0  0  0  0  0  0  0  0  0  0  0
   12.7333    0.3190   23.5631 C   0  0  0  0  0  0  0  0  0  0  0  0
   14.3563    0.7548   23.9788 Cl  0  0  0  0  0  0  0  0  0  0  0  0
   11.6919    0.9497   24.2062 C   0  0  0  0  0  0  0  0  0  0  0  0
   10.3908    0.5716   23.9451 C   0  0  0  0  0  0  0  0  0  0  0  0
   11.1634   -1.0501   22.3557 C   0  0  0  0  0  0  0  0  0  0  0  0
   10.1060   -0.4263   23.0188 C   0  0  0  0  0  0  0  0  0  0  0  0
    8.6509   -0.8269   22.7288 C   0  0  2  0  0  0  0  0  0  0  0  0
    8.5896   -2.3252   22.4059 C   0  0  1  0  0  0  0  0  0  0  0  0
    8.1364    0.0630   21.5470 C   0  0  0  0  0  0  0  0  0  0  0  0
    7.2956   -0.5300   20.6732 N   0  0  0  0  0  0  0  0  0  0  0  0
    6.3012   -0.0614   19.7873 C   0  0  0  0  0  0  0  0  0  0  0  0
    5.3537    0.9537   20.1547 C   0  0  0  0  0  0  0  0  0  0  0  0
    4.9355    1.2016   21.4902 C   0  0  0  0  0  0  0  0  0  0  0  0
    3.9084    2.0639   21.7627 C   0  0  0  0  0  0  0  0  0  0  0  0
    3.2554    2.7344   20.7404 C   0  0  0  0  0  0  0  0  0  0  0  0
    3.6256    2.5436   19.4395 C   0  0  0  0  0  0  0  0  0  0  0  0
    4.6737    1.6450   19.1083 C   0  0  0  0  0  0  0  0  0  0  0  0
    5.0002    1.3099   17.7754 C   0  0  0  0  0  0  0  0  0  0  0  0
    5.8595    0.3668   17.4335 N   0  0  0  0  0  0  0  0  0  0  0  0
    6.4594   -0.3061   18.4228 C   0  0  0  0  0  0  0  0  0  0  0  0
    8.5285    1.2120   21.4022 O   0  0  0  0  0  0  0  0  0  0  0  0
    7.8076   -0.5701   23.9054 N   0  0  0  0  0  0  0  0  0  0  0  0
    7.1049    0.5361   24.2032 C   0  0  0  0  0  0  0  0  0  0  0  0
    7.3600    1.6498   23.7516 O   0  0  0  0  0  0  0  0  0  0  0  0
    5.9187    0.3213   25.1289 C   0  0  1  0  0  0  0  0  0  0  0  0
    5.9118    1.2259   26.2619 N   0  0  0  0  0  0  0  0  0  0  0  0
    4.9644    2.1867   26.4267 C   0  0  0  0  0  0  0  0  0  0  0  0
    3.9987    2.3675   25.7068 O   0  0  0  0  0  0  0  0  0  0  0  0
    5.3148    2.9498   27.5096 N   0  0  0  0  0  0  0  0  0  0  0  0
    6.7869    2.9310   27.5843 C   0  0  1  0  0  0  0  0  0  0  0  0
    7.1241    1.5620   27.0144 C   0  0  1  0  0  0  0  0  0  0  0  0
    4.6203    2.8757   28.8083 C   0  0  1  0  0  0  0  0  0  0  0  0
    3.2738    3.5014   28.9554 C   0  0  1  0  0  0  0  0  0  0  0  0
    3.4175    2.0078   28.9774 C   0  0  2  0  0  0  0  0  0  0  0  0
   11.8933    1.7397   24.9145 H   0  0  0  0  0  0  0  0  0  0  0  0
    9.5808    1.0582   24.4680 H   0  0  0  0  0  0  0  0  0  0  0  0
   10.9642   -1.8198   21.6247 H   0  0  0  0  0  0  0  0  0  0  0  0
    7.5486   -2.6137   22.1981 H   0  0  0  0  0  0  0  0  0  0  0  0
    9.2115   -2.5357   21.5233 H   0  0  0  0  0  0  0  0  0  0  0  0
    8.9651   -2.9010   23.2646 H   0  0  0  0  0  0  0  0  0  0  0  0
    7.4007   -1.5241   20.6475 H   0  0  0  0  0  0  0  0  0  0  0  0
    5.4373    0.7004   22.3047 H   0  0  0  0  0  0  0  0  0  0  0  0
    3.6031    2.2237   22.7863 H   0  0  0  0  0  0  0  0  0  0  0  0
    2.4481    3.4127   20.9741 H   0  0  0  0  0  0  0  0  0  0  0  0
    3.1155    3.0821   18.6546 H   0  0  0  0  0  0  0  0  0  0  0  0
    4.5152    1.8613   16.9835 H   0  0  0  0  0  0  0  0  0  0  0  0
    7.1243   -1.1089   18.1401 H   0  0  0  0  0  0  0  0  0  0  0  0
    7.7492   -1.3149   24.5701 H   0  0  0  0  0  0  0  0  0  0  0  0
    4.9935    0.4732   24.5537 H   0  0  0  0  0  0  0  0  0  0  0  0
    5.9509   -0.7117   25.5056 H   0  0  0  0  0  0  0  0  0  0  0  0
    7.2267    3.7350   26.9759 H   0  0  0  0  0  0  0  0  0  0  0  0
    7.1340    3.0260   28.6238 H   0  0  0  0  0  0  0  0  0  0  0  0
    7.3099    0.8321   27.8161 H   0  0  0  0  0  0  0  0  0  0  0  0
    8.0018    1.6116   26.3531 H   0  0  0  0  0  0  0  0  0  0  0  0
    5.2682    2.9511   29.6940 H   0  0  0  0  0  0  0  0  0  0  0  0
    3.0164    4.0432   29.8775 H   0  0  0  0  0  0  0  0  0  0  0  0
    2.7997    3.9962   28.0949 H   0  0  0  0  0  0  0  0  0  0  0  0
    3.2659    1.4538   29.9156 H   0  0  0  0  0  0  0  0  0  0  0  0
    3.0492    1.4068   28.1330 H   0  0  0  0  0  0  0  0  0  0  0  0
  1  2  1  0
  2  3  2  0
  2  7  1  0
  3  4  1  0
  3  5  1  0
  5  6  2  0
  5 37  1  0
  6  8  1  0
  6 38  1  0
  7  8  2  0
  7 39  1  0
  8  9  1  0
  9 10  1  0
  9 11  1  0
  9 24  1  1
 10 40  1  6
 10 41  1  0
 10 42  1  0
 11 12  1  0
 11 23  2  0
 12 13  1  0
 12 43  1  0
 13 14  2  0
 13 22  1  0
 14 15  1  0
 14 19  1  0
 15 16  2  0
 15 44  1  0
 16 17  1  0
 16 45  1  0
 17 18  2  0
 17 46  1  0
 18 19  1  0
 18 47  1  0
 19 20  2  0
 20 21  1  0
 20 48  1  0
 21 22  2  0
 22 49  1  0
 24 25  1  0
 24 50  1  0
 25 26  2  0
 25 27  1  0
 27 28  1  0
 27 51  1  6
 27 52  1  0
 28 29  1  0
 28 33  1  0
 29 30  2  0
 29 31  1  0
 31 32  1  0
 31 34  1  0
 32 33  1  0
 32 53  1  6
 32 54  1  0
 33 55  1  1
 33 56  1  0
 34 35  1  0
 34 36  1  0
 34 57  1  1
 35 36  1  0
 35 58  1  1
 35 59  1  0
 36 60  1  1
 36 61  1  0
M  END
$$$$
