LIG(A-307)
     RDKit          3D

 57 62  0  0  1  0  0  0  0  0999 V2000
   10.8801    3.1172   24.5910 O   0  0  0  0  0  0  0  0  0  0  0  0
   10.4952    2.0072   24.2620 C   0  0  0  0  0  0  0  0  0  0  0  0
    9.2184    1.5970   24.5143 N   0  0  0  0  0  0  0  0  0  0  0  0
    8.2374    2.4767   25.2126 C   0  0  1  0  0  0  0  0  0  0  0  0
    7.4718    1.8634   26.3548 C   0  0  1  0  0  0  0  0  0  0  0  0
    8.5637    2.8386   26.6376 C   0  0  2  0  0  0  0  0  0  0  0  0
    7.5000    3.5257   24.4190 C   0  0  0  0  0  0  0  0  0  0  0  0
    6.6210    4.1634   24.9843 O   0  0  0  0  0  0  0  0  0  0  0  0
    7.8256    3.6999   23.1429 N   0  0  0  0  0  0  0  0  0  0  0  0
    7.1122    4.6459   22.3032 C   0  0  1  0  0  0  0  0  0  0  0  0
   11.3932    1.0504   23.5866 C   0  0  0  0  0  0  0  0  0  0  0  0
   12.7672    1.2907   23.5963 C   0  0  0  0  0  0  0  0  0  0  0  0
   13.6372    0.4019   22.9879 C   0  0  0  0  0  0  0  0  0  0  0  0
   13.1272   -0.7251   22.3759 C   0  0  0  0  0  0  0  0  0  0  0  0
   14.2142   -1.8018   21.5415 Cl  0  0  0  0  0  0  0  0  0  0  0  0
   11.7742   -1.0023   22.3643 C   0  0  0  0  0  0  0  0  0  0  0  0
   10.8932   -0.1016   22.9596 C   0  0  0  0  0  0  0  0  0  0  0  0
    9.3842   -0.2888   22.8730 C   0  0  1  0  0  0  0  0  0  0  0  0
    8.7495    0.2509   24.1812 C   0  0  2  0  0  0  0  0  0  0  0  0
    8.7918    0.5042   21.7052 C   0  0  0  0  0  0  0  0  0  0  0  0
    9.1435    1.6103   21.3353 O   0  0  0  0  0  0  0  0  0  0  0  0
    7.7668   -0.2199   21.1734 N   0  0  0  0  0  0  0  0  0  0  0  0
    7.5932   -1.5260   21.8343 C   0  0  1  0  0  0  0  0  0  0  0  0
    8.9234   -1.7318   22.5589 C   0  0  2  0  0  0  0  0  0  0  0  0
    6.9114    0.2211   20.1117 C   0  0  0  0  0  0  0  0  0  0  0  0
    5.7684    1.0179   20.4191 C   0  0  0  0  0  0  0  0  0  0  0  0
    5.3577    1.3526   21.7383 C   0  0  0  0  0  0  0  0  0  0  0  0
    4.2616    2.1414   21.9576 C   0  0  0  0  0  0  0  0  0  0  0  0
    3.5222    2.6384   20.8889 C   0  0  0  0  0  0  0  0  0  0  0  0
    3.8779    2.3457   19.6038 C   0  0  0  0  0  0  0  0  0  0  0  0
    5.0010    1.5259   19.3314 C   0  0  0  0  0  0  0  0  0  0  0  0
    5.4167    1.1901   18.0132 C   0  0  0  0  0  0  0  0  0  0  0  0
    6.4818    0.4483   17.7328 N   0  0  0  0  0  0  0  0  0  0  0  0
    7.1961   -0.0207   18.7676 C   0  0  0  0  0  0  0  0  0  0  0  0
    6.4234    2.1475   26.5283 H   0  0  0  0  0  0  0  0  0  0  0  0
    7.6087    0.7997   26.5991 H   0  0  0  0  0  0  0  0  0  0  0  0
    8.3195    3.8409   27.0193 H   0  0  0  0  0  0  0  0  0  0  0  0
    9.5049    2.4931   27.0902 H   0  0  0  0  0  0  0  0  0  0  0  0
    8.5775    3.1687   22.7524 H   0  0  0  0  0  0  0  0  0  0  0  0
    7.5400    4.6327   21.2899 H   0  0  0  0  0  0  0  0  0  0  0  0
    6.0496    4.3655   22.2563 H   0  0  0  0  0  0  0  0  0  0  0  0
    7.2064    5.6563   22.7276 H   0  0  0  0  0  0  0  0  0  0  0  0
   13.1544    2.1747   24.0809 H   0  0  0  0  0  0  0  0  0  0  0  0
   14.7010    0.5881   22.9923 H   0  0  0  0  0  0  0  0  0  0  0  0
   11.4042   -1.9046   21.9002 H   0  0  0  0  0  0  0  0  0  0  0  0
    7.6567    0.2775   24.0589 H   0  0  0  0  0  0  0  0  0  0  0  0
    9.0096   -0.4281   25.0066 H   0  0  0  0  0  0  0  0  0  0  0  0
    6.7560   -1.4988   22.5472 H   0  0  0  0  0  0  0  0  0  0  0  0
    7.4196   -2.3219   21.0950 H   0  0  0  0  0  0  0  0  0  0  0  0
    8.7830   -2.3108   23.4837 H   0  0  0  0  0  0  0  0  0  0  0  0
    9.6495   -2.2453   21.9116 H   0  0  0  0  0  0  0  0  0  0  0  0
    5.9200    0.9782   22.5809 H   0  0  0  0  0  0  0  0  0  0  0  0
    3.9677    2.3803   22.9690 H   0  0  0  0  0  0  0  0  0  0  0  0
    2.6600    3.2609   21.0775 H   0  0  0  0  0  0  0  0  0  0  0  0
    3.2965    2.7436   18.7852 H   0  0  0  0  0  0  0  0  0  0  0  0
    4.8284    1.5623   17.1875 H   0  0  0  0  0  0  0  0  0  0  0  0
    8.0574   -0.6322   18.5425 H   0  0  0  0  0  0  0  0  0  0  0  0
  1  2  2  0
  2  3  1  0
  2 11  1  0
  4  3  1  6
  3 19  1  0
  4  5  1  0
  4  6  1  0
  4  7  1  0
  5  6  1  0
  5 35  1  6
  5 36  1  0
  6 37  1  6
  6 38  1  0
  7  8  2  0
  7  9  1  0
  9 10  1  0
  9 39  1  0
 10 40  1  6
 10 41  1  0
 10 42  1  0
 11 12  2  0
 11 17  1  0
 12 13  1  0
 12 43  1  0
 13 14  2  0
 13 44  1  0
 14 15  1  0
 14 16  1  0
 16 17  2  0
 16 45  1  0
 17 18  1  0
 18 19  1  0
 18 20  1  6
 18 24  1  0
 19 46  1  6
 19 47  1  0
 20 21  2  0
 20 22  1  0
 22 23  1  0
 22 25  1  0
 23 24  1  0
 23 48  1  1
 23 49  1  0
 24 50  1  1
 24 51  1  0
 25 26  2  0
 25 34  1  0
 26 27  1  0
 26 31  1  0
 27 28  2  0
 27 52  1  0
 28 29  1  0
 28 53  1  0
 29 30  2  0
 29 54  1  0
 30 31  1  0
 30 55  1  0
 31 32  2  0
 32 33  1  0
 32 56  1  0
 33 34  2  0
 34 57  1  0
M  END
$$$$
