LIG(A-306)
     RDKit          3D

 66 71  0  0  1  0  0  0  0  0999 V2000
    9.3438    1.3931   20.9959 O   0  0  0  0  0  0  0  0  0  0  0  0
    8.8589    0.4650   21.6284 C   0  0  0  0  0  0  0  0  0  0  0  0
    7.6894   -0.1256   21.2670 N   0  0  0  0  0  0  0  0  0  0  0  0
    6.9110    0.1578   20.1153 C   0  0  0  0  0  0  0  0  0  0  0  0
    5.7280    0.9537   20.2611 C   0  0  0  0  0  0  0  0  0  0  0  0
    5.2237    1.3947   21.5118 C   0  0  0  0  0  0  0  0  0  0  0  0
    4.1028    2.1714   21.5836 C   0  0  0  0  0  0  0  0  0  0  0  0
    3.4301    2.5521   20.4295 C   0  0  0  0  0  0  0  0  0  0  0  0
    3.8764    2.1541   19.2016 C   0  0  0  0  0  0  0  0  0  0  0  0
    5.0324    1.3432   19.0829 C   0  0  0  0  0  0  0  0  0  0  0  0
    5.5458    0.9033   17.8362 C   0  0  0  0  0  0  0  0  0  0  0  0
    6.6256    0.1452   17.7013 N   0  0  0  0  0  0  0  0  0  0  0  0
    7.2772   -0.2117   18.8183 C   0  0  0  0  0  0  0  0  0  0  0  0
    9.5538   -0.0630   22.9022 C   0  0  2  0  0  0  0  0  0  0  0  0
    8.9405    0.7553   24.0630 C   0  0  1  0  0  0  0  0  0  0  0  0
    9.5742    2.1264   24.1794 C   0  0  1  0  0  0  0  0  0  0  0  0
   10.9984    2.0428   24.3712 O   0  0  0  0  0  0  0  0  0  0  0  0
   11.0753    0.1642   22.8185 C   0  0  0  0  0  0  0  0  0  0  0  0
   11.6765    1.2440   23.4833 C   0  0  0  0  0  0  0  0  0  0  0  0
   13.0299    1.5146   23.3533 C   0  0  0  0  0  0  0  0  0  0  0  0
   13.8161    0.6896   22.5706 C   0  0  0  0  0  0  0  0  0  0  0  0
   11.8895   -0.6716   22.0508 C   0  0  0  0  0  0  0  0  0  0  0  0
   13.2379   -0.3900   21.9338 C   0  0  0  0  0  0  0  0  0  0  0  0
   14.2175   -1.3838   20.8910 Cl  0  0  0  0  0  0  0  0  0  0  0  0
    9.2544   -1.5741   23.0396 C   0  0  1  0  0  0  0  0  0  0  0  0
    9.9068   -2.2937   24.2044 C   0  0  0  0  0  0  0  0  0  0  0  0
   10.6413   -1.7340   25.0118 O   0  0  0  0  0  0  0  0  0  0  0  0
    9.6560   -3.6229   24.3019 N   0  0  0  0  0  0  0  0  0  0  0  0
   10.1857   -4.4632   25.3922 C   0  0  2  0  0  0  0  0  0  0  0  0
    9.8973   -5.8863   24.9092 C   0  0  1  0  0  0  0  0  0  0  0  0
    8.7152   -5.7508   23.9692 C   0  0  1  0  0  0  0  0  0  0  0  0
    8.8791   -4.4026   23.3175 C   0  0  2  0  0  0  0  0  0  0  0  0
    9.6346   -4.1536   26.7915 C   0  0  1  0  0  0  0  0  0  0  0  0
    8.1851   -4.3437   26.8741 N   0  0  0  0  0  0  0  0  0  0  0  0
    7.2273   -3.5495   26.3489 C   0  0  0  0  0  0  0  0  0  0  0  0
    6.0204   -4.0366   26.5310 N   0  0  0  0  0  0  0  0  0  0  0  0
    6.2180   -5.2076   27.2308 C   0  0  0  0  0  0  0  0  0  0  0  0
    7.5375   -5.4094   27.4532 C   0  0  0  0  0  0  0  0  0  0  0  0
    7.3402   -0.8359   21.8782 H   0  0  0  0  0  0  0  0  0  0  0  0
    5.7339    1.1119   22.4206 H   0  0  0  0  0  0  0  0  0  0  0  0
    3.7357    2.4928   22.5471 H   0  0  0  0  0  0  0  0  0  0  0  0
    2.5463    3.1683   20.5038 H   0  0  0  0  0  0  0  0  0  0  0  0
    3.3436    2.4600   18.3133 H   0  0  0  0  0  0  0  0  0  0  0  0
    5.0243    1.2047   16.9398 H   0  0  0  0  0  0  0  0  0  0  0  0
    8.1533   -0.8333   18.7064 H   0  0  0  0  0  0  0  0  0  0  0  0
    7.8620    0.8753   23.8833 H   0  0  0  0  0  0  0  0  0  0  0  0
    9.0968    0.2094   25.0051 H   0  0  0  0  0  0  0  0  0  0  0  0
    9.3717    2.6916   23.2577 H   0  0  0  0  0  0  0  0  0  0  0  0
    9.1297    2.6524   25.0371 H   0  0  0  0  0  0  0  0  0  0  0  0
   13.4665    2.3630   23.8593 H   0  0  0  0  0  0  0  0  0  0  0  0
   14.8719    0.8878   22.4586 H   0  0  0  0  0  0  0  0  0  0  0  0
   11.4686   -1.5321   21.5521 H   0  0  0  0  0  0  0  0  0  0  0  0
    8.1654   -1.6902   23.1436 H   0  0  0  0  0  0  0  0  0  0  0  0
    9.5888   -2.0658   22.1142 H   0  0  0  0  0  0  0  0  0  0  0  0
   11.2779   -4.3371   25.4285 H   0  0  0  0  0  0  0  0  0  0  0  0
   10.7681   -6.2981   24.3780 H   0  0  0  0  0  0  0  0  0  0  0  0
    9.6433   -6.5384   25.7578 H   0  0  0  0  0  0  0  0  0  0  0  0
    8.7309   -6.5491   23.2125 H   0  0  0  0  0  0  0  0  0  0  0  0
    7.7698   -5.7955   24.5297 H   0  0  0  0  0  0  0  0  0  0  0  0
    9.4276   -4.4912   22.3681 H   0  0  0  0  0  0  0  0  0  0  0  0
    7.9003   -3.9357   23.1333 H   0  0  0  0  0  0  0  0  0  0  0  0
   10.1205   -4.8210   27.5185 H   0  0  0  0  0  0  0  0  0  0  0  0
    9.8687   -3.1080   27.0402 H   0  0  0  0  0  0  0  0  0  0  0  0
    7.4301   -2.6202   25.8375 H   0  0  0  0  0  0  0  0  0  0  0  0
    5.4303   -5.8710   27.5560 H   0  0  0  0  0  0  0  0  0  0  0  0
    7.9894   -6.2380   27.9781 H   0  0  0  0  0  0  0  0  0  0  0  0
  1  2  2  0
  2  3  1  0
 14  2  1  6
  3  4  1  0
  3 39  1  0
  4  5  2  0
  4 13  1  0
  5  6  1  0
  5 10  1  0
  6  7  2  0
  6 40  1  0
  7  8  1  0
  7 41  1  0
  8  9  2  0
  8 42  1  0
  9 10  1  0
  9 43  1  0
 10 11  2  0
 11 12  1  0
 11 44  1  0
 12 13  2  0
 13 45  1  0
 14 15  1  0
 14 18  1  0
 14 25  1  0
 15 16  1  0
 15 46  1  6
 15 47  1  0
 16 17  1  0
 16 48  1  6
 16 49  1  0
 17 19  1  0
 18 19  2  0
 18 22  1  0
 19 20  1  0
 20 21  2  0
 20 50  1  0
 21 23  1  0
 21 51  1  0
 22 23  2  0
 22 52  1  0
 23 24  1  0
 25 26  1  0
 25 53  1  1
 25 54  1  0
 26 27  2  0
 26 28  1  0
 28 29  1  0
 28 32  1  0
 29 30  1  0
 29 33  1  0
 29 55  1  1
 30 31  1  0
 30 56  1  6
 30 57  1  0
 31 32  1  0
 31 58  1  6
 31 59  1  0
 32 60  1  6
 32 61  1  0
 33 34  1  0
 33 62  1  1
 33 63  1  0
 34 35  1  0
 34 38  1  0
 35 36  2  0
 35 64  1  0
 36 37  1  0
 37 38  2  0
 37 65  1  0
 38 66  1  0
M  END
$$$$
