LIG(A-307)
     RDKit          3D

 61 66  0  0  1  0  0  0  0  0999 V2000
    9.0093    7.1120   22.5608 N   0  0  0  0  0  0  0  0  0  0  0  0
    8.3254    6.2070   22.6639 C   0  0  0  0  0  0  0  0  0  0  0  0
    7.4575    5.0230   22.7350 C   0  0  1  0  0  0  0  0  0  0  0  0
    6.1135    5.1889   23.4162 C   0  0  1  0  0  0  0  0  0  0  0  0
    6.1733    5.1179   21.9352 C   0  0  2  0  0  0  0  0  0  0  0  0
    8.2225    3.7070   22.8529 C   0  0  1  0  0  0  0  0  0  0  0  0
    8.5158    2.9700   24.4519 S   0  0  2  0  0  0  0  0  0  0  0  0
    7.2879    2.4080   24.9150 O   0  0  0  0  0  0  0  0  0  0  0  0
    9.1979    3.9230   25.2678 O   0  0  0  0  0  0  0  0  0  0  0  0
    9.5438    1.7311   24.1947 N   0  0  0  0  0  0  0  0  0  0  0  0
    9.0789    0.3400   24.0878 C   0  0  1  0  0  0  0  0  0  0  0  0
   10.9759    1.8381   24.5065 C   0  0  1  0  0  0  0  0  0  0  0  0
   11.8028    0.9662   23.5824 C   0  0  0  0  0  0  0  0  0  0  0  0
   11.2307   -0.0758   22.8285 C   0  0  0  0  0  0  0  0  0  0  0  0
   12.0466   -0.8738   22.0284 C   0  0  0  0  0  0  0  0  0  0  0  0
   13.3966   -0.6007   21.9442 C   0  0  0  0  0  0  0  0  0  0  0  0
   14.3795   -1.5417   20.8540 Cl  0  0  0  0  0  0  0  0  0  0  0  0
   13.9737    0.4193   22.6661 C   0  0  0  0  0  0  0  0  0  0  0  0
   13.1757    1.1932   23.4892 C   0  0  0  0  0  0  0  0  0  0  0  0
    9.7297   -0.2859   22.8297 C   0  0  1  0  0  0  0  0  0  0  0  0
    9.2477   -1.7359   22.5298 C   0  0  1  0  0  0  0  0  0  0  0  0
    9.2480   -2.6959   23.7157 C   0  0  1  0  0  0  0  0  0  0  0  0
    9.1285    0.4421   21.6158 C   0  0  0  0  0  0  0  0  0  0  0  0
    9.5424    1.4691   21.1177 O   0  0  0  0  0  0  0  0  0  0  0  0
    8.0305   -0.2550   21.2039 N   0  0  0  0  0  0  0  0  0  0  0  0
    7.8587   -1.5140   21.9380 C   0  0  2  0  0  0  0  0  0  0  0  0
    7.1343    0.1410   20.1541 C   0  0  0  0  0  0  0  0  0  0  0  0
    5.9563    0.9129   20.4072 C   0  0  0  0  0  0  0  0  0  0  0  0
    5.5245    1.3079   21.7023 C   0  0  0  0  0  0  0  0  0  0  0  0
    4.4005    2.0668   21.8715 C   0  0  0  0  0  0  0  0  0  0  0  0
    3.6553    2.4808   20.7736 C   0  0  0  0  0  0  0  0  0  0  0  0
    4.0261    2.1288   19.5075 C   0  0  0  0  0  0  0  0  0  0  0  0
    5.1801    1.3339   19.2883 C   0  0  0  0  0  0  0  0  0  0  0  0
    5.6200    0.9449   17.9933 C   0  0  0  0  0  0  0  0  0  0  0  0
    6.7120    0.2250   17.7621 N   0  0  0  0  0  0  0  0  0  0  0  0
    7.4341   -0.1570   18.8260 C   0  0  0  0  0  0  0  0  0  0  0  0
    5.6821    4.3541   23.9880 H   0  0  0  0  0  0  0  0  0  0  0  0
    5.8629    6.1395   23.9097 H   0  0  0  0  0  0  0  0  0  0  0  0
    5.7861    4.2306   21.4130 H   0  0  0  0  0  0  0  0  0  0  0  0
    5.9668    6.0161   21.3346 H   0  0  0  0  0  0  0  0  0  0  0  0
    7.6665    2.9651   22.2611 H   0  0  0  0  0  0  0  0  0  0  0  0
    9.2096    3.8744   22.3972 H   0  0  0  0  0  0  0  0  0  0  0  0
    9.3790   -0.2238   24.9832 H   0  0  0  0  0  0  0  0  0  0  0  0
    7.9834    0.3189   23.9912 H   0  0  0  0  0  0  0  0  0  0  0  0
   11.2915    2.8855   24.3900 H   0  0  0  0  0  0  0  0  0  0  0  0
   11.1420    1.5186   25.5459 H   0  0  0  0  0  0  0  0  0  0  0  0
   11.6246   -1.7012   21.4773 H   0  0  0  0  0  0  0  0  0  0  0  0
   15.0336    0.6124   22.5909 H   0  0  0  0  0  0  0  0  0  0  0  0
   13.6233    1.9866   24.0694 H   0  0  0  0  0  0  0  0  0  0  0  0
    9.8959   -2.1539   21.7454 H   0  0  0  0  0  0  0  0  0  0  0  0
    8.8913   -3.6838   23.3886 H   0  0  0  0  0  0  0  0  0  0  0  0
   10.2697   -2.7881   24.1125 H   0  0  0  0  0  0  0  0  0  0  0  0
    8.5831   -2.3080   24.5015 H   0  0  0  0  0  0  0  0  0  0  0  0
    7.1000   -1.4143   22.7282 H   0  0  0  0  0  0  0  0  0  0  0  0
    7.5778   -2.3347   21.2615 H   0  0  0  0  0  0  0  0  0  0  0  0
    6.0943    1.0031   22.5676 H   0  0  0  0  0  0  0  0  0  0  0  0
    4.0886    2.3473   22.8667 H   0  0  0  0  0  0  0  0  0  0  0  0
    2.7741    3.0870   20.9234 H   0  0  0  0  0  0  0  0  0  0  0  0
    3.4356    2.4586   18.6656 H   0  0  0  0  0  0  0  0  0  0  0  0
    5.0288    1.2544   17.1441 H   0  0  0  0  0  0  0  0  0  0  0  0
    8.3210   -0.7439   18.6380 H   0  0  0  0  0  0  0  0  0  0  0  0
  1  2  3  0
  3  2  1  6
  3  4  1  0
  3  5  1  0
  3  6  1  0
  4  5  1  0
  4 37  1  1
  4 38  1  0
  5 39  1  6
  5 40  1  0
  6  7  1  0
  6 41  1  6
  6 42  1  0
  7  8  2  0
  7  9  2  0
  7 10  1  6
 10 11  1  0
 10 12  1  0
 11 20  1  0
 11 43  1  1
 11 44  1  0
 12 13  1  0
 12 45  1  1
 12 46  1  0
 13 14  2  0
 13 19  1  0
 14 15  1  0
 14 20  1  0
 15 16  2  0
 15 47  1  0
 16 17  1  0
 16 18  1  0
 18 19  2  0
 18 48  1  0
 19 49  1  0
 20 21  1  0
 20 23  1  6
 21 22  1  0
 21 26  1  0
 21 50  1  6
 22 51  1  6
 22 52  1  0
 22 53  1  0
 23 24  2  0
 23 25  1  0
 25 26  1  0
 25 27  1  0
 26 54  1  1
 26 55  1  0
 27 28  2  0
 27 36  1  0
 28 29  1  0
 28 33  1  0
 29 30  2  0
 29 56  1  0
 30 31  1  0
 30 57  1  0
 31 32  2  0
 31 58  1  0
 32 33  1  0
 32 59  1  0
 33 34  2  0
 34 35  1  0
 34 60  1  0
 35 36  2  0
 36 61  1  0
M  END
$$$$
