LIG(A-305)
     RDKit          3D

 38 39  0  0  1  0  0  0  0  0999 V2000
   14.0088   -1.8002   21.4861 Cl  0  0  0  0  0  0  0  0  0  0  0  0
   12.9099   -0.6921   22.2531 C   0  0  0  0  0  0  0  0  0  0  0  0
   13.3969    0.4939   22.7660 C   0  0  0  0  0  0  0  0  0  0  0  0
   12.5040    1.3830   23.3439 C   0  0  0  0  0  0  0  0  0  0  0  0
   11.1560    1.0751   23.4130 C   0  0  0  0  0  0  0  0  0  0  0  0
   11.5678   -1.0160   22.3111 C   0  0  0  0  0  0  0  0  0  0  0  0
   10.6719   -0.1249   22.8950 C   0  0  0  0  0  0  0  0  0  0  0  0
    9.1719   -0.4268   22.9080 C   0  0  1  0  0  0  0  0  0  0  0  0
    8.9808   -1.8388   22.8821 O   0  0  0  0  0  0  0  0  0  0  0  0
    8.4959    0.1413   24.1760 C   0  0  1  0  0  0  0  0  0  0  0  0
    7.0649   -0.3296   24.3940 C   0  0  1  0  0  0  0  0  0  0  0  0
    8.5499    0.2331   21.6330 C   0  0  0  0  0  0  0  0  0  0  0  0
    8.9880    1.2991   21.2319 O   0  0  0  0  0  0  0  0  0  0  0  0
    7.5069   -0.4008   21.0520 N   0  0  0  0  0  0  0  0  0  0  0  0
    6.7549    0.1151   19.9680 C   0  0  0  0  0  0  0  0  0  0  0  0
    5.6210    0.9122   20.2249 C   0  0  0  0  0  0  0  0  0  0  0  0
    5.1130    1.1533   21.6229 C   0  0  1  0  0  0  0  0  0  0  0  0
    4.9880    1.4952   19.1319 C   0  0  0  0  0  0  0  0  0  0  0  0
    5.4850    1.2851   17.8629 C   0  0  0  0  0  0  0  0  0  0  0  0
    6.5489    0.5160   17.6040 N   0  0  0  0  0  0  0  0  0  0  0  0
    7.1569   -0.0610   18.6450 C   0  0  0  0  0  0  0  0  0  0  0  0
   14.4510    0.7240   22.7179 H   0  0  0  0  0  0  0  0  0  0  0  0
   12.8618    2.3208   23.7425 H   0  0  0  0  0  0  0  0  0  0  0  0
   10.4718    1.7726   23.8733 H   0  0  0  0  0  0  0  0  0  0  0  0
   11.2166   -1.9537   21.9063 H   0  0  0  0  0  0  0  0  0  0  0  0
    9.2401   -2.2093   23.7176 H   0  0  0  0  0  0  0  0  0  0  0  0
    9.0936   -0.1609   25.0486 H   0  0  0  0  0  0  0  0  0  0  0  0
    8.4885    1.2386   24.0989 H   0  0  0  0  0  0  0  0  0  0  0  0
    6.6658    0.1222   25.3141 H   0  0  0  0  0  0  0  0  0  0  0  0
    6.4446   -0.0260   23.5378 H   0  0  0  0  0  0  0  0  0  0  0  0
    7.0498   -1.4255   24.4875 H   0  0  0  0  0  0  0  0  0  0  0  0
    7.2479   -1.2968   21.4128 H   0  0  0  0  0  0  0  0  0  0  0  0
    5.8967    1.6438   22.2189 H   0  0  0  0  0  0  0  0  0  0  0  0
    4.2240    1.7999   21.5834 H   0  0  0  0  0  0  0  0  0  0  0  0
    4.8469    0.1922   22.0871 H   0  0  0  0  0  0  0  0  0  0  0  0
    4.1115    2.1094   19.2766 H   0  0  0  0  0  0  0  0  0  0  0  0
    4.9889    1.7672   17.0335 H   0  0  0  0  0  0  0  0  0  0  0  0
    8.0065   -0.6988   18.4504 H   0  0  0  0  0  0  0  0  0  0  0  0
  1  2  1  0
  2  3  2  0
  2  6  1  0
  3  4  1  0
  3 22  1  0
  4  5  2  0
  4 23  1  0
  5  7  1  0
  5 24  1  0
  6  7  2  0
  6 25  1  0
  7  8  1  0
  8  9  1  6
  8 10  1  0
  8 12  1  0
  9 26  1  0
 10 11  1  0
 10 27  1  1
 10 28  1  0
 11 29  1  1
 11 30  1  0
 11 31  1  0
 12 13  2  0
 12 14  1  0
 14 15  1  0
 14 32  1  0
 15 16  2  0
 15 21  1  0
 16 17  1  0
 16 18  1  0
 17 33  1  1
 17 34  1  0
 17 35  1  0
 18 19  2  0
 18 36  1  0
 19 20  1  0
 19 37  1  0
 20 21  2  0
 21 38  1  0
M  END
$$$$
