LIG(A-305)
     RDKit          3D

 34 35  0  0  0  0  0  0  0  0999 V2000
    6.7819   -5.0880   21.8203 N   0  0  0  0  0  0  0  0  0  0  0  0
    7.9709   -3.6010   20.2832 C   0  0  1  0  0  0  0  0  0  0  0  0
    5.9298   -4.6930   19.7663 O   0  0  0  0  0  0  0  0  0  0  0  0
    6.8079   -4.5070   20.5993 C   0  0  0  0  0  0  0  0  0  0  0  0
    1.7492   -3.7759   25.8066 C   0  0  0  0  0  0  0  0  0  0  0  0
    2.7642   -4.7119   25.7705 C   0  0  0  0  0  0  0  0  0  0  0  0
    5.8549   -6.1670   22.1643 C   0  0  1  0  0  0  0  0  0  0  0  0
    5.0480   -5.8010   23.3824 C   0  0  1  0  0  0  0  0  0  0  0  0
    6.8391   -4.3530   24.1453 C   0  0  1  0  0  0  0  0  0  0  0  0
    7.6560   -4.7220   22.9372 C   0  0  1  0  0  0  0  0  0  0  0  0
    4.0572   -4.3309   26.0594 C   0  0  0  0  0  0  0  0  0  0  0  0
    4.3522   -3.0209   26.3744 C   0  0  0  0  0  0  0  0  0  0  0  0
    3.3392   -2.0809   26.4095 C   0  0  0  0  0  0  0  0  0  0  0  0
    2.0492   -2.4709   26.1266 C   0  0  0  0  0  0  0  0  0  0  0  0
    5.9711   -5.4900   24.4843 N   0  0  0  0  0  0  0  0  0  0  0  0
    6.4002   -5.1010   26.8793 O   0  0  0  0  0  0  0  0  0  0  0  0
    4.7702   -6.8220   26.1704 O   0  0  0  0  0  0  0  0  0  0  0  0
    5.3562   -5.5300   26.0014 S   0  0  1  0  0  0  0  0  0  0  0  0
    0.7742   -1.2879   26.1696 Cl  0  0  0  0  0  0  0  0  0  0  0  0
    7.8585   -3.2010   19.2647 H   0  0  0  0  0  0  0  0  0  0  0  0
    7.9940   -2.7696   21.0030 H   0  0  0  0  0  0  0  0  0  0  0  0
    8.9090   -4.1714   20.3516 H   0  0  0  0  0  0  0  0  0  0  0  0
    0.7320   -4.0644   25.5863 H   0  0  0  0  0  0  0  0  0  0  0  0
    2.5456   -5.7387   25.5168 H   0  0  0  0  0  0  0  0  0  0  0  0
    5.1741   -6.3427   21.3185 H   0  0  0  0  0  0  0  0  0  0  0  0
    6.4270   -7.0835   22.3711 H   0  0  0  0  0  0  0  0  0  0  0  0
    4.4245   -4.9217   23.1627 H   0  0  0  0  0  0  0  0  0  0  0  0
    4.4035   -6.6457   23.6668 H   0  0  0  0  0  0  0  0  0  0  0  0
    7.5063   -4.1301   24.9908 H   0  0  0  0  0  0  0  0  0  0  0  0
    6.2233   -3.4695   23.9214 H   0  0  0  0  0  0  0  0  0  0  0  0
    8.3037   -5.5758   23.1851 H   0  0  0  0  0  0  0  0  0  0  0  0
    8.2776   -3.8631   22.6443 H   0  0  0  0  0  0  0  0  0  0  0  0
    5.3694   -2.7311   26.5926 H   0  0  0  0  0  0  0  0  0  0  0  0
    3.5572   -1.0522   26.6560 H   0  0  0  0  0  0  0  0  0  0  0  0
  1  4  1  0
  1  7  1  0
  1 10  1  0
  2  4  1  0
  2 20  1  6
  2 21  1  0
  2 22  1  0
  3  4  2  0
  5  6  2  0
  5 14  1  0
  5 23  1  0
  6 11  1  0
  6 24  1  0
  7  8  1  0
  7 25  1  6
  7 26  1  0
  8 15  1  0
  8 27  1  6
  8 28  1  0
  9 10  1  0
  9 15  1  0
  9 29  1  1
  9 30  1  0
 10 31  1  1
 10 32  1  0
 11 12  2  0
 11 18  1  0
 12 13  1  0
 12 33  1  0
 13 14  2  0
 13 34  1  0
 14 19  1  0
 18 15  1  6
 16 18  2  0
 17 18  2  0
M  END
$$$$
