LIG(A-305)
     RDKit          3D

 36 37  0  0  0  0  0  0  0  0999 V2000
   14.4468   -0.2985   22.8186 F   0  0  0  0  0  0  0  0  0  0  0  0
   13.5517   -1.2743   22.8348 C   0  0  2  0  0  0  0  0  0  0  0  0
   14.0576   -2.2984   23.5238 F   0  0  0  0  0  0  0  0  0  0  0  0
   13.4524   -1.6704   21.5628 F   0  0  0  0  0  0  0  0  0  0  0  0
   12.2368   -0.8101   23.4000 C   0  0  0  0  0  0  0  0  0  0  0  0
   12.1712    0.0690   24.4709 C   0  0  0  0  0  0  0  0  0  0  0  0
   10.9223    0.4413   24.9361 C   0  0  0  0  0  0  0  0  0  0  0  0
    9.7871   -0.0646   24.3213 C   0  0  0  0  0  0  0  0  0  0  0  0
   11.1507   -1.3129   22.7932 N   0  0  0  0  0  0  0  0  0  0  0  0
    9.9438   -0.9387   23.2494 C   0  0  0  0  0  0  0  0  0  0  0  0
    8.7626   -1.4775   22.4806 C   0  0  1  0  0  0  0  0  0  0  0  0
    8.3466   -0.5115   21.3906 C   0  0  0  0  0  0  0  0  0  0  0  0
    9.0087    0.4894   21.1254 O   0  0  0  0  0  0  0  0  0  0  0  0
    7.1894   -0.8263   20.7778 N   0  0  0  0  0  0  0  0  0  0  0  0
    6.5814   -0.0862   19.7409 C   0  0  0  0  0  0  0  0  0  0  0  0
    5.4386    0.6810   20.0100 C   0  0  0  0  0  0  0  0  0  0  0  0
    4.8858    0.8332   21.4101 C   0  0  1  0  0  0  0  0  0  0  0  0
    4.5331    2.2583   21.7811 C   0  0  1  0  0  0  0  0  0  0  0  0
    7.0851   -0.0994   18.4428 C   0  0  0  0  0  0  0  0  0  0  0  0
    6.5251    0.5717   17.4328 N   0  0  0  0  0  0  0  0  0  0  0  0
    5.4203    1.2789   17.6990 C   0  0  0  0  0  0  0  0  0  0  0  0
    4.8505    1.3640   18.9511 C   0  0  0  0  0  0  0  0  0  0  0  0
   13.0706    0.4526   24.9294 H   0  0  0  0  0  0  0  0  0  0  0  0
   10.8325    1.1202   25.7712 H   0  0  0  0  0  0  0  0  0  0  0  0
    8.8024    0.2136   24.6668 H   0  0  0  0  0  0  0  0  0  0  0  0
    9.0374   -2.4400   22.0243 H   0  0  0  0  0  0  0  0  0  0  0  0
    7.9199   -1.6267   23.1716 H   0  0  0  0  0  0  0  0  0  0  0  0
    6.7209   -1.6552   21.0835 H   0  0  0  0  0  0  0  0  0  0  0  0
    3.9767    0.2193   21.4918 H   0  0  0  0  0  0  0  0  0  0  0  0
    5.6406    0.4671   22.1217 H   0  0  0  0  0  0  0  0  0  0  0  0
    4.1404    2.2838   22.8083 H   0  0  0  0  0  0  0  0  0  0  0  0
    5.4333    2.8872   21.7171 H   0  0  0  0  0  0  0  0  0  0  0  0
    3.7695    2.6394   21.0871 H   0  0  0  0  0  0  0  0  0  0  0  0
    7.9728   -0.6811   18.2427 H   0  0  0  0  0  0  0  0  0  0  0  0
    4.9488    1.8127   16.8870 H   0  0  0  0  0  0  0  0  0  0  0  0
    3.9591    1.9534   19.1077 H   0  0  0  0  0  0  0  0  0  0  0  0
  2  1  1  6
  2  3  1  0
  2  4  1  0
  2  5  1  0
  5  6  2  0
  5  9  1  0
  6  7  1  0
  6 23  1  0
  7  8  2  0
  7 24  1  0
  8 10  1  0
  8 25  1  0
  9 10  2  0
 10 11  1  0
 11 12  1  0
 11 26  1  6
 11 27  1  0
 12 13  2  0
 12 14  1  0
 14 15  1  0
 14 28  1  0
 15 16  2  0
 15 19  1  0
 16 17  1  0
 16 22  1  0
 17 18  1  0
 17 29  1  6
 17 30  1  0
 18 31  1  1
 18 32  1  0
 18 33  1  0
 19 20  2  0
 19 34  1  0
 20 21  1  0
 21 22  2  0
 21 35  1  0
 22 36  1  0
M  END
$$$$
