LIG(A-305)
     RDKit          3D

 33 35  0  0  0  0  0  0  0  0999 V2000
    9.0357    0.9406   21.0073 O   0  0  0  0  0  0  0  0  0  0  0  0
    8.5258   -0.1194   21.3564 C   0  0  0  0  0  0  0  0  0  0  0  0
    9.0619   -0.9183   22.5293 C   0  0  1  0  0  0  0  0  0  0  0  0
   10.5339   -0.6662   22.7582 C   0  0  0  0  0  0  0  0  0  0  0  0
   10.9640    0.2359   23.7231 C   0  0  0  0  0  0  0  0  0  0  0  0
   12.3080    0.5589   23.8439 C   0  0  0  0  0  0  0  0  0  0  0  0
   13.2459   -0.0340   23.0129 C   0  0  0  0  0  0  0  0  0  0  0  0
   11.4789   -1.2822   21.9471 C   0  0  0  0  0  0  0  0  0  0  0  0
   12.8159   -0.9671   22.0910 C   0  0  0  0  0  0  0  0  0  0  0  0
   13.9918   -1.8401   21.1489 Cl  0  0  0  0  0  0  0  0  0  0  0  0
    7.4297   -0.6405   20.7655 N   0  0  0  0  0  0  0  0  0  0  0  0
    6.6626   -0.0716   19.7355 C   0  0  0  0  0  0  0  0  0  0  0  0
    5.4746    0.6454   20.0796 C   0  0  0  0  0  0  0  0  0  0  0  0
    4.9467    0.7254   21.3937 C   0  0  0  0  0  0  0  0  0  0  0  0
    3.7887    1.4163   21.6068 C   0  0  0  0  0  0  0  0  0  0  0  0
    3.1006    2.0513   20.6438 N   0  0  0  0  0  0  0  0  0  0  0  0
    3.5844    2.0092   19.4078 C   0  0  0  0  0  0  0  0  0  0  0  0
    4.7744    1.3193   19.0447 C   0  0  0  0  0  0  0  0  0  0  0  0
    5.3133    1.2452   17.7356 C   0  0  0  0  0  0  0  0  0  0  0  0
    6.4203    0.5733   17.4165 N   0  0  0  0  0  0  0  0  0  0  0  0
    7.0555   -0.0746   18.3975 C   0  0  0  0  0  0  0  0  0  0  0  0
    8.5075   -0.6342   23.4360 H   0  0  0  0  0  0  0  0  0  0  0  0
    8.9118   -1.9893   22.3282 H   0  0  0  0  0  0  0  0  0  0  0  0
   10.2438    0.6910   24.3869 H   0  0  0  0  0  0  0  0  0  0  0  0
   12.6245    1.2749   24.5880 H   0  0  0  0  0  0  0  0  0  0  0  0
   14.2910    0.2285   23.0852 H   0  0  0  0  0  0  0  0  0  0  0  0
   11.1691   -2.0048   21.2068 H   0  0  0  0  0  0  0  0  0  0  0  0
    7.1294   -1.5340   21.0993 H   0  0  0  0  0  0  0  0  0  0  0  0
    5.4552    0.2451   22.2166 H   0  0  0  0  0  0  0  0  0  0  0  0
    3.4011    1.4549   22.6141 H   0  0  0  0  0  0  0  0  0  0  0  0
    3.0423    2.5298   18.6321 H   0  0  0  0  0  0  0  0  0  0  0  0
    4.7937    1.7668   16.9455 H   0  0  0  0  0  0  0  0  0  0  0  0
    7.9366   -0.6415   18.1352 H   0  0  0  0  0  0  0  0  0  0  0  0
  1  2  2  0
  2  3  1  0
  2 11  1  0
  3  4  1  0
  3 22  1  1
  3 23  1  0
  4  5  2  0
  4  8  1  0
  5  6  1  0
  5 24  1  0
  6  7  2  0
  6 25  1  0
  7  9  1  0
  7 26  1  0
  8  9  2  0
  8 27  1  0
  9 10  1  0
 11 12  1  0
 11 28  1  0
 12 13  2  0
 12 21  1  0
 13 14  1  0
 13 18  1  0
 14 15  2  0
 14 29  1  0
 15 16  1  0
 15 30  1  0
 16 17  2  0
 17 18  1  0
 17 31  1  0
 18 19  2  0
 19 20  1  0
 19 32  1  0
 20 21  2  0
 21 33  1  0
M  END
$$$$
