LIG(A-306)
     RDKit          3D

 45 48  0  0  1  0  0  0  0  0999 V2000
  -14.6113   -2.2514  -20.9494 Cl  0  0  0  0  0  0  0  0  0  0  0  0
  -13.4027   -1.4849  -21.9423 C   0  0  0  0  0  0  0  0  0  0  0  0
  -12.0783   -1.8217  -21.7601 C   0  0  0  0  0  0  0  0  0  0  0  0
  -13.7896   -0.5419  -22.8707 C   0  0  0  0  0  0  0  0  0  0  0  0
  -12.8272    0.0674  -23.6559 C   0  0  0  0  0  0  0  0  0  0  0  0
  -11.4858   -0.2803  -23.5147 C   0  0  0  0  0  0  0  0  0  0  0  0
  -10.5189    0.1786  -24.4484 N   0  0  0  0  0  0  0  0  0  0  0  0
  -10.8188    0.8272  -25.6109 C   0  0  0  0  0  0  0  0  0  0  0  0
  -11.2385    0.2084  -26.5794 O   0  0  0  0  0  0  0  0  0  0  0  0
  -10.6073    2.3108  -25.6412 C   0  0  1  0  0  0  0  0  0  0  0  0
  -11.0968   -1.2065  -22.5323 C   0  0  0  0  0  0  0  0  0  0  0  0
   -9.6382   -1.5198  -22.2702 C   0  0  1  0  0  0  0  0  0  0  0  0
   -8.8697   -1.4352  -23.5969 C   0  0  1  0  0  0  0  0  0  0  0  0
   -9.0861   -0.0577  -24.2040 C   0  0  1  0  0  0  0  0  0  0  0  0
   -9.0506   -0.5667  -21.2268 C   0  0  0  0  0  0  0  0  0  0  0  0
   -9.6067    0.4855  -20.9105 O   0  0  0  0  0  0  0  0  0  0  0  0
   -7.8829   -0.9813  -20.6856 N   0  0  0  0  0  0  0  0  0  0  0  0
   -7.1251   -0.3515  -19.6805 C   0  0  0  0  0  0  0  0  0  0  0  0
   -6.0545    0.5102  -20.0709 C   0  0  0  0  0  0  0  0  0  0  0  0
   -5.6717    0.7318  -21.4187 C   0  0  0  0  0  0  0  0  0  0  0  0
   -4.6630    1.5995  -21.7291 C   0  0  0  0  0  0  0  0  0  0  0  0
   -3.9841    2.2835  -20.7286 C   0  0  0  0  0  0  0  0  0  0  0  0
   -4.3129    2.1009  -19.4158 C   0  0  0  0  0  0  0  0  0  0  0  0
   -5.3535    1.2112  -19.0515 C   0  0  0  0  0  0  0  0  0  0  0  0
   -5.7584    0.9987  -17.7127 C   0  0  0  0  0  0  0  0  0  0  0  0
   -6.7508    0.1978  -17.3501 N   0  0  0  0  0  0  0  0  0  0  0  0
   -7.4036   -0.4564  -18.3175 C   0  0  0  0  0  0  0  0  0  0  0  0
  -11.8033   -2.5599  -21.0214 H   0  0  0  0  0  0  0  0  0  0  0  0
  -14.8317   -0.2819  -22.9836 H   0  0  0  0  0  0  0  0  0  0  0  0
  -13.1166    0.8146  -24.3800 H   0  0  0  0  0  0  0  0  0  0  0  0
  -10.8838    2.7010  -26.6318 H   0  0  0  0  0  0  0  0  0  0  0  0
  -11.2339    2.7861  -24.8722 H   0  0  0  0  0  0  0  0  0  0  0  0
   -9.5489    2.5343  -25.4415 H   0  0  0  0  0  0  0  0  0  0  0  0
   -9.5608   -2.5482  -21.8875 H   0  0  0  0  0  0  0  0  0  0  0  0
   -7.7967   -1.5933  -23.4130 H   0  0  0  0  0  0  0  0  0  0  0  0
   -9.2406   -2.2060  -24.2884 H   0  0  0  0  0  0  0  0  0  0  0  0
   -8.5407    0.0077  -25.1570 H   0  0  0  0  0  0  0  0  0  0  0  0
   -8.7061    0.7072  -23.5108 H   0  0  0  0  0  0  0  0  0  0  0  0
   -7.5130   -1.8390  -21.0427 H   0  0  0  0  0  0  0  0  0  0  0  0
   -6.1850    0.2071  -22.2109 H   0  0  0  0  0  0  0  0  0  0  0  0
   -4.3908    1.7551  -22.7625 H   0  0  0  0  0  0  0  0  0  0  0  0
   -3.1892    2.9658  -20.9913 H   0  0  0  0  0  0  0  0  0  0  0  0
   -3.7753    2.6391  -18.6491 H   0  0  0  0  0  0  0  0  0  0  0  0
   -5.2237    1.5234  -16.9347 H   0  0  0  0  0  0  0  0  0  0  0  0
   -8.2064   -1.1152  -18.0209 H   0  0  0  0  0  0  0  0  0  0  0  0
  1  2  1  0
  2  3  2  0
  2  4  1  0
  3 11  1  0
  3 28  1  0
  4  5  2  0
  4 29  1  0
  5  6  1  0
  5 30  1  0
  6  7  1  0
  6 11  2  0
  7  8  1  0
  7 14  1  0
  8  9  2  0
  8 10  1  0
 10 31  1  6
 10 32  1  0
 10 33  1  0
 11 12  1  0
 12 13  1  0
 12 15  1  0
 12 34  1  1
 13 14  1  0
 13 35  1  1
 13 36  1  0
 14 37  1  6
 14 38  1  0
 15 16  2  0
 15 17  1  0
 17 18  1  0
 17 39  1  0
 18 19  2  0
 18 27  1  0
 19 20  1  0
 19 24  1  0
 20 21  2  0
 20 40  1  0
 21 22  1  0
 21 41  1  0
 22 23  2  0
 22 42  1  0
 23 24  1  0
 23 43  1  0
 24 25  2  0
 25 26  1  0
 25 44  1  0
 26 27  2  0
 27 45  1  0
M  END
$$$$
