LIG(A-305)
     RDKit          3D

 33 35  0  0  1  0  0  0  0  0999 V2000
   24.9111  -27.9713   20.0653 Cl  0  0  0  0  0  0  0  0  0  0  0  0
   24.4041  -27.2372   18.5743 C   0  0  0  0  0  0  0  0  0  0  0  0
   24.7961  -27.8122   17.3833 C   0  0  0  0  0  0  0  0  0  0  0  0
   24.4041  -27.2412   16.1853 C   0  0  0  0  0  0  0  0  0  0  0  0
   23.6242  -26.0961   16.2133 C   0  0  0  0  0  0  0  0  0  0  0  0
   23.1672  -25.3231   15.1624 N   0  0  0  0  0  0  0  0  0  0  0  0
   22.4613  -24.2520   15.6714 C   0  0  0  0  0  0  0  0  0  0  0  0
   21.9064  -23.1780   14.9704 C   0  0  0  0  0  0  0  0  0  0  0  0
   21.9244  -23.1770   13.4594 C   0  0  1  0  0  0  0  0  0  0  0  0
   23.6142  -26.1022   18.6233 C   0  0  0  0  0  0  0  0  0  0  0  0
   23.2113  -25.5151   17.4274 C   0  0  0  0  0  0  0  0  0  0  0  0
   22.4463  -24.3291   17.0754 C   0  0  0  0  0  0  0  0  0  0  0  0
   21.8114  -23.3200   17.7944 C   0  0  0  0  0  0  0  0  0  0  0  0
   21.2655  -22.2490   17.1124 C   0  0  0  0  0  0  0  0  0  0  0  0
   21.3245  -22.1409   15.7214 C   0  0  0  0  0  0  0  0  0  0  0  0
   20.7976  -20.8849   15.0355 C   0  0  1  0  0  0  0  0  0  0  0  0
   19.9466  -20.0348   15.9695 C   0  0  1  0  0  0  0  0  0  0  0  0
   21.9046  -20.0430   14.4255 C   0  0  0  0  0  0  0  0  0  0  0  0
   21.8666  -19.6749   13.2705 O   0  0  0  0  0  0  0  0  0  0  0  0
   22.8737  -19.7471   15.2495 O   0  0  0  0  0  0  0  0  0  0  0  0
   25.4058  -28.7037   17.3858 H   0  0  0  0  0  0  0  0  0  0  0  0
   24.7009  -27.6805   15.2444 H   0  0  0  0  0  0  0  0  0  0  0  0
   23.3236  -25.5105   14.1928 H   0  0  0  0  0  0  0  0  0  0  0  0
   22.4104  -24.0949   13.0973 H   0  0  0  0  0  0  0  0  0  0  0  0
   20.8925  -23.1347   13.0807 H   0  0  0  0  0  0  0  0  0  0  0  0
   22.4831  -22.3002   13.1001 H   0  0  0  0  0  0  0  0  0  0  0  0
   23.3161  -25.6798   19.5715 H   0  0  0  0  0  0  0  0  0  0  0  0
   21.7463  -23.3735   18.8711 H   0  0  0  0  0  0  0  0  0  0  0  0
   20.7760  -21.4679   17.6753 H   0  0  0  0  0  0  0  0  0  0  0  0
   20.1467  -21.2136   14.2119 H   0  0  0  0  0  0  0  0  0  0  0  0
   19.5905  -19.1434   15.4324 H   0  0  0  0  0  0  0  0  0  0  0  0
   19.0841  -20.6228   16.3164 H   0  0  0  0  0  0  0  0  0  0  0  0
   20.5507  -19.7244   16.8348 H   0  0  0  0  0  0  0  0  0  0  0  0
  1  2  1  0
  2  3  2  0
  2 10  1  0
  3  4  1  0
  3 21  1  0
  4  5  2  0
  4 22  1  0
  5  6  1  0
  5 11  1  0
  6  7  1  0
  6 23  1  0
  7  8  2  0
  7 12  1  0
  8  9  1  0
  8 15  1  0
  9 24  1  6
  9 25  1  0
  9 26  1  0
 10 11  2  0
 10 27  1  0
 11 12  1  0
 12 13  2  0
 13 14  1  0
 13 28  1  0
 14 15  2  0
 14 29  1  0
 15 16  1  0
 16 17  1  0
 16 18  1  0
 16 30  1  6
 17 31  1  6
 17 32  1  0
 17 33  1  0
 18 19  2  0
 18 20  1  0
M  CHG  1  20  -1
M  END
$$$$
