LIG(B-307)
     RDKit          3D

 72 74  0  0  1  0  0  0  0  0999 V2000
  -57.7176    0.9787  -18.1318 C   0  0  0  0  0  0  0  0  0  0  0  0
  -58.9862   -3.5770  -19.6723 C   0  0  1  0  0  0  0  0  0  0  0  0
  -60.5324   -1.2041  -21.7231 C   0  0  0  0  0  0  0  0  0  0  0  0
  -61.3552    1.6941  -22.1535 C   0  0  0  0  0  0  0  0  0  0  0  0
  -63.4296    4.1037  -22.9409 C   0  0  0  0  0  0  0  0  0  0  0  0
  -57.0054    0.3843  -20.3322 C   0  0  1  0  0  0  0  0  0  0  0  0
  -56.1890    1.5662  -19.7975 C   0  0  1  0  0  0  0  0  0  0  0  0
  -62.2451    0.4788  -24.1517 C   0  0  1  0  0  0  0  0  0  0  0  0
  -58.1501    0.1755  -19.3309 C   0  0  1  0  0  0  0  0  0  0  0  0
  -61.9182   -0.6789  -22.0231 C   0  0  2  0  0  0  0  0  0  0  0  0
  -62.7370   -0.9532  -24.3094 C   0  0  1  0  0  0  0  0  0  0  0  0
  -62.6610   -1.6496  -22.9508 C   0  0  2  0  0  0  0  0  0  0  0  0
  -64.0241   -1.2206  -23.5311 C   0  0  2  0  0  0  0  0  0  0  0  0
  -64.8680   -2.4355  -23.9264 C   0  0  1  0  0  0  0  0  0  0  0  0
  -64.7734   -0.1321  -22.7417 C   0  0  1  0  0  0  0  0  0  0  0  0
  -59.1098    2.5090  -24.1173 C   0  0  1  0  0  0  0  0  0  0  0  0
  -59.1829    3.9395  -22.0728 C   0  0  1  0  0  0  0  0  0  0  0  0
  -60.1230    4.7510  -24.2037 C   0  0  1  0  0  0  0  0  0  0  0  0
  -58.3481   -1.2906  -18.9631 C   0  0  1  0  0  0  0  0  0  0  0  0
  -58.9473   -2.1283  -20.1084 C   0  0  2  0  0  0  0  0  0  0  0  0
  -61.3295    2.9171  -23.0337 C   0  0  2  0  0  0  0  0  0  0  0  0
  -64.2993    5.0634  -22.1681 C   0  0  2  0  0  0  0  0  0  0  0  0
  -59.9426    3.5171  -23.3300 C   0  0  1  0  0  0  0  0  0  0  0  0
  -57.9365   -4.2785  -19.6788 N   0  0  1  0  0  0  0  0  0  0  0  0
  -56.6615    1.7409  -18.4294 N   0  0  0  0  0  0  0  0  0  0  0  0
  -61.8062    0.5837  -22.7569 N   0  0  0  0  0  0  0  0  0  0  0  0
  -60.2929   -1.6907  -20.5018 N   0  0  0  0  0  0  0  0  0  0  0  0
  -62.2040    3.9122  -22.4612 N   0  0  0  0  0  0  0  0  0  0  0  0
  -58.2909    0.9296  -17.0466 O   0  0  0  0  0  0  0  0  0  0  0  0
  -59.6543   -1.1654  -22.5772 O   0  0  0  0  0  0  0  0  0  0  0  0
  -61.0266    1.7296  -20.9718 O   0  0  0  0  0  0  0  0  0  0  0  0
  -63.8518    3.5481  -23.9420 O   0  0  0  0  0  0  0  0  0  0  0  0
  -65.4994    5.1123  -22.7408 F   0  0  0  0  0  0  0  0  0  0  0  0
  -63.7585    6.2798  -22.1148 F   0  0  0  0  0  0  0  0  0  0  0  0
  -64.3789    4.6081  -20.9370 F   0  0  0  0  0  0  0  0  0  0  0  0
  -59.3633   -3.5845  -18.6390 H   0  0  0  0  0  0  0  0  0  0  0  0
  -59.7077   -4.0842  -20.3296 H   0  0  0  0  0  0  0  0  0  0  0  0
  -57.4072    0.6171  -21.3294 H   0  0  0  0  0  0  0  0  0  0  0  0
  -56.3790   -0.5179  -20.3907 H   0  0  0  0  0  0  0  0  0  0  0  0
  -55.1136    1.3351  -19.8118 H   0  0  0  0  0  0  0  0  0  0  0  0
  -56.3774    2.4713  -20.3935 H   0  0  0  0  0  0  0  0  0  0  0  0
  -61.4065    0.6761  -24.8357 H   0  0  0  0  0  0  0  0  0  0  0  0
  -63.0589    1.1906  -24.3545 H   0  0  0  0  0  0  0  0  0  0  0  0
  -59.0833    0.5861  -19.7439 H   0  0  0  0  0  0  0  0  0  0  0  0
  -62.4848   -0.5430  -21.0901 H   0  0  0  0  0  0  0  0  0  0  0  0
  -62.5217   -1.5148  -25.2303 H   0  0  0  0  0  0  0  0  0  0  0  0
  -62.4142   -2.7208  -22.9107 H   0  0  0  0  0  0  0  0  0  0  0  0
  -65.8311   -2.0962  -24.3355 H   0  0  0  0  0  0  0  0  0  0  0  0
  -64.3324   -3.0216  -24.6878 H   0  0  0  0  0  0  0  0  0  0  0  0
  -65.0465   -3.0618  -23.0400 H   0  0  0  0  0  0  0  0  0  0  0  0
  -65.7263    0.0945  -23.2425 H   0  0  0  0  0  0  0  0  0  0  0  0
  -64.9721   -0.4907  -21.7210 H   0  0  0  0  0  0  0  0  0  0  0  0
  -64.1572    0.7780  -22.6972 H   0  0  0  0  0  0  0  0  0  0  0  0
  -59.6581    2.2062  -25.0215 H   0  0  0  0  0  0  0  0  0  0  0  0
  -58.1533    2.9694  -24.4056 H   0  0  0  0  0  0  0  0  0  0  0  0
  -58.9173    1.6247  -23.4920 H   0  0  0  0  0  0  0  0  0  0  0  0
  -59.7846    4.6659  -21.5068 H   0  0  0  0  0  0  0  0  0  0  0  0
  -58.9904    3.0559  -21.4466 H   0  0  0  0  0  0  0  0  0  0  0  0
  -58.2264    4.4007  -22.3602 H   0  0  0  0  0  0  0  0  0  0  0  0
  -60.6684    4.4765  -25.1186 H   0  0  0  0  0  0  0  0  0  0  0  0
  -60.6940    5.5113  -23.6507 H   0  0  0  0  0  0  0  0  0  0  0  0
  -59.1367    5.1569  -24.4727 H   0  0  0  0  0  0  0  0  0  0  0  0
  -57.3716   -1.7179  -18.6915 H   0  0  0  0  0  0  0  0  0  0  0  0
  -59.0257   -1.3456  -18.0983 H   0  0  0  0  0  0  0  0  0  0  0  0
  -58.2772   -2.0460  -20.9768 H   0  0  0  0  0  0  0  0  0  0  0  0
  -61.7542    2.6200  -24.0040 H   0  0  0  0  0  0  0  0  0  0  0  0
  -58.1506   -5.2025  -19.3620 H   0  0  0  0  0  0  0  0  0  0  0  0
  -57.5701   -4.3213  -20.6082 H   0  0  0  0  0  0  0  0  0  0  0  0
  -57.2571   -3.8670  -19.0713 H   0  0  0  0  0  0  0  0  0  0  0  0
  -56.2369    2.3696  -17.7778 H   0  0  0  0  0  0  0  0  0  0  0  0
  -61.0432   -1.7581  -19.8441 H   0  0  0  0  0  0  0  0  0  0  0  0
  -61.8838    4.4658  -21.6924 H   0  0  0  0  0  0  0  0  0  0  0  0
  1  9  1  0
  1 25  1  0
  1 29  2  0
  2 20  1  0
  2 24  1  0
  2 36  1  1
  2 37  1  0
  3 10  1  0
  3 27  1  0
  3 30  2  0
  4 21  1  0
  4 26  1  0
  4 31  2  0
  5 22  1  0
  5 28  1  0
  5 32  2  0
  6  7  1  0
  6  9  1  0
  6 38  1  6
  6 39  1  0
  7 25  1  0
  7 40  1  1
  7 41  1  0
  8 11  1  0
  8 26  1  0
  8 42  1  6
  8 43  1  0
  9 19  1  0
  9 44  1  6
 10 12  1  0
 10 26  1  0
 10 45  1  1
 11 12  1  0
 13 11  1  6
 11 46  1  6
 12 13  1  0
 12 47  1  6
 13 14  1  0
 13 15  1  0
 14 48  1  6
 14 49  1  0
 14 50  1  0
 15 51  1  6
 15 52  1  0
 15 53  1  0
 16 23  1  0
 16 54  1  6
 16 55  1  0
 16 56  1  0
 17 23  1  0
 17 57  1  1
 17 58  1  0
 17 59  1  0
 18 23  1  0
 18 60  1  6
 18 61  1  0
 18 62  1  0
 19 20  1  0
 19 63  1  1
 19 64  1  0
 20 27  1  0
 20 65  1  6
 23 21  1  1
 21 28  1  0
 21 66  1  6
 22 33  1  6
 22 34  1  0
 22 35  1  0
 24 67  1  1
 24 68  1  0
 24 69  1  0
 25 70  1  0
 27 71  1  0
 28 72  1  0
M  CHG  1  24   1
M  END
$$$$
