LIG(A-305)
     RDKit          3D

 30 29  0  0  1  0  0  0  0  0999 V2000
    1.4319   -8.6756   21.2131 C   0  0  1  0  0  0  0  0  0  0  0  0
    1.6809   -7.3886   21.9331 C   0  0  0  0  0  0  0  0  0  0  0  0
    3.1879   -6.0866   23.3571 C   0  0  1  0  0  0  0  0  0  0  0  0
    2.8869   -6.3596   24.8341 C   0  0  1  0  0  0  0  0  0  0  0  0
    3.1519   -7.8036   25.2081 C   0  0  0  0  0  0  0  0  0  0  0  0
    4.6049   -5.5186   23.2011 C   0  0  0  0  0  0  0  0  0  0  0  0
    6.6479   -5.4207   21.8381 C   0  0  1  0  0  0  0  0  0  0  0  0
    6.6729   -5.2797   20.3241 C   0  0  0  0  0  0  0  0  0  0  0  0
    5.8439   -6.0327   19.6281 C   0  0  0  0  0  0  0  0  0  0  0  0
    2.8749   -7.2446   22.5221 N   0  0  0  0  0  0  0  0  0  0  0  0
    2.5019   -8.2756   26.2611 N   0  0  0  0  0  0  0  0  0  0  0  0
    5.4679   -6.1096   22.3621 N   0  0  0  0  0  0  0  0  0  0  0  0
    0.8289   -6.5026   21.9641 O   0  0  0  0  0  0  0  0  0  0  0  0
    3.9499   -8.4826   24.5681 O   0  0  0  0  0  0  0  0  0  0  0  0
    4.9129   -4.5216   23.8491 O   0  0  0  0  0  0  0  0  0  0  0  0
    0.4273   -8.6575   20.7655 H   0  0  0  0  0  0  0  0  0  0  0  0
    2.1840   -8.8038   20.4207 H   0  0  0  0  0  0  0  0  0  0  0  0
    1.5016   -9.5125   21.9236 H   0  0  0  0  0  0  0  0  0  0  0  0
    2.5038   -5.2810   23.0523 H   0  0  0  0  0  0  0  0  0  0  0  0
    3.5234   -5.7097   25.4526 H   0  0  0  0  0  0  0  0  0  0  0  0
    1.8290   -6.1302   25.0296 H   0  0  0  0  0  0  0  0  0  0  0  0
    7.5406   -5.9850   22.1458 H   0  0  0  0  0  0  0  0  0  0  0  0
    6.6814   -4.4130   22.2780 H   0  0  0  0  0  0  0  0  0  0  0  0
    7.3447   -4.5885   19.8370 H   0  0  0  0  0  0  0  0  0  0  0  0
    5.8282   -5.9649   18.5503 H   0  0  0  0  0  0  0  0  0  0  0  0
    5.1806   -6.7173   20.1358 H   0  0  0  0  0  0  0  0  0  0  0  0
    3.5717   -7.9490   22.3869 H   0  0  0  0  0  0  0  0  0  0  0  0
    2.6533   -9.2174   26.5613 H   0  0  0  0  0  0  0  0  0  0  0  0
    1.8597   -7.6901   26.7560 H   0  0  0  0  0  0  0  0  0  0  0  0
    5.2991   -7.0554   22.0844 H   0  0  0  0  0  0  0  0  0  0  0  0
  1  2  1  0
  1 16  1  6
  1 17  1  0
  1 18  1  0
  2 10  1  0
  2 13  2  0
  3  4  1  0
  3  6  1  0
  3 10  1  0
  3 19  1  6
  4  5  1  0
  4 20  1  1
  4 21  1  0
  5 11  1  0
  5 14  2  0
  6 12  1  0
  6 15  2  0
  7  8  1  0
  7 12  1  0
  7 22  1  1
  7 23  1  0
  8  9  2  0
  8 24  1  0
  9 25  1  0
  9 26  1  0
 10 27  1  0
 11 28  1  0
 11 29  1  0
 12 30  1  0
M  END
$$$$
