LIG(A-305)
     RDKit          3D

 34 35  0  0  0  0  0  0  0  0999 V2000
    5.6536   -5.1884   24.4237 N   0  0  0  0  0  0  0  0  0  0  0  0
    2.4107   -4.1503   25.7429 C   0  0  0  0  0  0  0  0  0  0  0  0
    4.3757   -6.3023   26.2048 O   0  0  0  0  0  0  0  0  0  0  0  0
    1.4197   -3.1973   25.7179 C   0  0  0  0  0  0  0  0  0  0  0  0
    6.6733   -4.4775   20.5276 C   0  0  0  0  0  0  0  0  0  0  0  0
    7.8252   -3.5356   20.2604 C   0  0  1  0  0  0  0  0  0  0  0  0
    1.7797   -1.8703   25.8419 C   0  0  0  0  0  0  0  0  0  0  0  0
    3.0987   -1.4883   25.9918 C   0  0  0  0  0  0  0  0  0  0  0  0
    4.0707   -2.4603   26.0127 C   0  0  0  0  0  0  0  0  0  0  0  0
    3.7507   -3.8073   25.8858 C   0  0  0  0  0  0  0  0  0  0  0  0
    4.7105   -5.3184   23.3017 C   0  0  1  0  0  0  0  0  0  0  0  0
    5.4474   -5.8985   22.1237 C   0  0  1  0  0  0  0  0  0  0  0  0
    7.5064   -4.8745   22.8815 C   0  0  1  0  0  0  0  0  0  0  0  0
    6.7905   -4.3154   24.0845 C   0  0  2  0  0  0  0  0  0  0  0  0
    2.0497   -5.4483   25.6220 F   0  0  0  0  0  0  0  0  0  0  0  0
    5.3617   -2.0794   26.1556 F   0  0  0  0  0  0  0  0  0  0  0  0
    6.5733   -5.0335   21.7606 N   0  0  0  0  0  0  0  0  0  0  0  0
    6.0658   -4.5924   26.7816 O   0  0  0  0  0  0  0  0  0  0  0  0
    5.8512   -4.6955   19.6486 O   0  0  0  0  0  0  0  0  0  0  0  0
    5.0117   -5.0524   25.9277 S   0  0  2  0  0  0  0  0  0  0  0  0
    0.3837   -3.4804   25.6040 H   0  0  0  0  0  0  0  0  0  0  0  0
    7.7539   -3.1504   19.2325 H   0  0  0  0  0  0  0  0  0  0  0  0
    7.7844   -2.6960   20.9701 H   0  0  0  0  0  0  0  0  0  0  0  0
    8.7759   -4.0748   20.3847 H   0  0  0  0  0  0  0  0  0  0  0  0
    1.0110   -1.1120   25.8211 H   0  0  0  0  0  0  0  0  0  0  0  0
    3.3616   -0.4454   26.0906 H   0  0  0  0  0  0  0  0  0  0  0  0
    3.8836   -5.9853   23.5873 H   0  0  0  0  0  0  0  0  0  0  0  0
    4.3090   -4.3289   23.0377 H   0  0  0  0  0  0  0  0  0  0  0  0
    5.8256   -6.8974   22.3867 H   0  0  0  0  0  0  0  0  0  0  0  0
    4.7603   -5.9800   21.2685 H   0  0  0  0  0  0  0  0  0  0  0  0
    8.3128   -4.1866   22.5873 H   0  0  0  0  0  0  0  0  0  0  0  0
    7.9356   -5.8543   23.1379 H   0  0  0  0  0  0  0  0  0  0  0  0
    7.4849   -4.2688   24.9365 H   0  0  0  0  0  0  0  0  0  0  0  0
    6.4221   -3.3044   23.8559 H   0  0  0  0  0  0  0  0  0  0  0  0
  1 11  1  0
  1 14  1  0
 20  1  1  6
  2  4  2  0
  2 10  1  0
  2 15  1  0
  3 20  2  0
  4  7  1  0
  4 21  1  0
  5  6  1  0
  5 17  1  0
  5 19  2  0
  6 22  1  6
  6 23  1  0
  6 24  1  0
  7  8  2  0
  7 25  1  0
  8  9  1  0
  8 26  1  0
  9 10  2  0
  9 16  1  0
 10 20  1  0
 11 12  1  0
 11 27  1  1
 11 28  1  0
 12 17  1  0
 12 29  1  1
 12 30  1  0
 13 14  1  0
 13 17  1  0
 13 31  1  6
 13 32  1  0
 14 33  1  1
 14 34  1  0
 18 20  2  0
M  END
$$$$
