LIG(A-305)
     RDKit          3D

 35 37  0  0  1  0  0  0  0  0999 V2000
    9.6907    1.0279   21.1360 O   0  0  0  0  0  0  0  0  0  0  0  0
    9.2256    0.0450   21.7111 C   0  0  0  0  0  0  0  0  0  0  0  0
    9.9226   -0.6050   22.8731 C   0  0  1  0  0  0  0  0  0  0  0  0
   10.9855   -1.6172   22.4331 C   0  0  1  0  0  0  0  0  0  0  0  0
   12.3195   -0.9053   22.7380 C   0  0  2  0  0  0  0  0  0  0  0  0
   13.4705   -1.0404   21.7960 C   0  0  1  0  0  0  0  0  0  0  0  0
   13.5165   -1.6984   23.1500 C   0  0  1  0  0  0  0  0  0  0  0  0
   12.0607    0.4668   23.4050 C   0  0  1  0  0  0  0  0  0  0  0  0
   10.5817    0.4139   23.8240 C   0  0  2  0  0  0  0  0  0  0  0  0
    8.0645   -0.5429   21.3612 N   0  0  0  0  0  0  0  0  0  0  0  0
    7.2315   -0.0819   20.3202 C   0  0  0  0  0  0  0  0  0  0  0  0
    5.9726    0.4623   20.6322 C   0  0  0  0  0  0  0  0  0  0  0  0
    5.4857    0.5904   22.0552 C   0  0  1  0  0  0  0  0  0  0  0  0
    7.6425   -0.1080   18.9862 C   0  0  0  0  0  0  0  0  0  0  0  0
    6.8995    0.3671   17.9792 N   0  0  0  0  0  0  0  0  0  0  0  0
    5.7016    0.8792   18.2882 C   0  0  0  0  0  0  0  0  0  0  0  0
    5.2056    0.9413   19.5762 C   0  0  0  0  0  0  0  0  0  0  0  0
    9.1665   -1.1532   23.4542 H   0  0  0  0  0  0  0  0  0  0  0  0
   10.8992   -2.5510   23.0081 H   0  0  0  0  0  0  0  0  0  0  0  0
   10.8956   -1.8380   21.3592 H   0  0  0  0  0  0  0  0  0  0  0  0
   13.3704   -1.6542   20.8886 H   0  0  0  0  0  0  0  0  0  0  0  0
   14.1127   -0.1731   21.5830 H   0  0  0  0  0  0  0  0  0  0  0  0
   14.1922   -1.3122   23.9274 H   0  0  0  0  0  0  0  0  0  0  0  0
   13.4499   -2.7933   23.2330 H   0  0  0  0  0  0  0  0  0  0  0  0
   12.7097    0.6018   24.2828 H   0  0  0  0  0  0  0  0  0  0  0  0
   12.2343    1.2856   22.6913 H   0  0  0  0  0  0  0  0  0  0  0  0
   10.4893    0.0813   24.8685 H   0  0  0  0  0  0  0  0  0  0  0  0
   10.1143    1.4034   23.7117 H   0  0  0  0  0  0  0  0  0  0  0  0
    7.7763   -1.3543   21.8697 H   0  0  0  0  0  0  0  0  0  0  0  0
    6.1765    1.2306   22.6234 H   0  0  0  0  0  0  0  0  0  0  0  0
    4.4817    1.0397   22.0601 H   0  0  0  0  0  0  0  0  0  0  0  0
    5.4437   -0.4060   22.5194 H   0  0  0  0  0  0  0  0  0  0  0  0
    8.6082   -0.5327   18.7551 H   0  0  0  0  0  0  0  0  0  0  0  0
    5.0893    1.2649   17.4865 H   0  0  0  0  0  0  0  0  0  0  0  0
    4.2274    1.3597   19.7617 H   0  0  0  0  0  0  0  0  0  0  0  0
  1  2  2  0
  2  3  1  0
  2 10  1  0
  3  4  1  0
  3  9  1  0
  3 18  1  1
  5  4  1  6
  4 19  1  1
  4 20  1  0
  5  6  1  0
  5  7  1  0
  5  8  1  0
  6  7  1  0
  6 21  1  6
  6 22  1  0
  7 23  1  1
  7 24  1  0
  8  9  1  0
  8 25  1  1
  8 26  1  0
  9 27  1  1
  9 28  1  0
 10 11  1  0
 10 29  1  0
 11 12  2  0
 11 14  1  0
 12 13  1  0
 12 17  1  0
 13 30  1  1
 13 31  1  0
 13 32  1  0
 14 15  2  0
 14 33  1  0
 15 16  1  0
 16 17  2  0
 16 34  1  0
 17 35  1  0
M  END
$$$$
