LIG(A-306)
     RDKit          3D

 39 42  0  0  1  0  0  0  0  0999 V2000
   -9.3842    0.3599  -21.1850 O   0  0  0  0  0  0  0  0  0  0  0  0
   -8.8858   -0.7346  -21.4375 C   0  0  0  0  0  0  0  0  0  0  0  0
   -9.4310   -1.6447  -22.5434 C   0  0  2  0  0  0  0  0  0  0  0  0
   -8.6857   -1.4516  -23.8782 C   0  0  1  0  0  0  0  0  0  0  0  0
   -9.0149   -0.1008  -24.4712 C   0  0  1  0  0  0  0  0  0  0  0  0
  -10.4398    0.1361  -24.6210 O   0  0  0  0  0  0  0  0  0  0  0  0
  -10.9036   -1.3621  -22.7510 C   0  0  0  0  0  0  0  0  0  0  0  0
  -11.3159   -0.4911  -23.7679 C   0  0  0  0  0  0  0  0  0  0  0  0
  -12.6712   -0.2520  -23.9667 C   0  0  0  0  0  0  0  0  0  0  0  0
  -13.1889    0.7047  -25.3197 Cl  0  0  0  0  0  0  0  0  0  0  0  0
  -13.6276   -0.8428  -23.1661 C   0  0  0  0  0  0  0  0  0  0  0  0
  -11.8762   -1.9769  -21.9625 C   0  0  0  0  0  0  0  0  0  0  0  0
  -13.2114   -1.7051  -22.1756 C   0  0  0  0  0  0  0  0  0  0  0  0
  -14.4026   -2.4535  -21.1503 Cl  0  0  0  0  0  0  0  0  0  0  0  0
   -7.8199   -1.2391  -20.7721 N   0  0  0  0  0  0  0  0  0  0  0  0
   -7.0774   -0.6408  -19.7380 C   0  0  0  0  0  0  0  0  0  0  0  0
   -6.0308    0.2696  -20.0834 C   0  0  0  0  0  0  0  0  0  0  0  0
   -5.5578    0.4653  -21.4100 C   0  0  0  0  0  0  0  0  0  0  0  0
   -4.5869    1.3897  -21.6816 C   0  0  0  0  0  0  0  0  0  0  0  0
   -4.0337    2.1572  -20.6630 C   0  0  0  0  0  0  0  0  0  0  0  0
   -4.4429    1.9928  -19.3688 C   0  0  0  0  0  0  0  0  0  0  0  0
   -5.4462    1.0430  -19.0437 C   0  0  0  0  0  0  0  0  0  0  0  0
   -5.9146    0.8313  -17.7240 C   0  0  0  0  0  0  0  0  0  0  0  0
   -6.8616   -0.0358  -17.3981 N   0  0  0  0  0  0  0  0  0  0  0  0
   -7.4135   -0.7486  -18.3879 C   0  0  0  0  0  0  0  0  0  0  0  0
   -9.3120   -2.6913  -22.2262 H   0  0  0  0  0  0  0  0  0  0  0  0
   -7.6019   -1.5161  -23.7015 H   0  0  0  0  0  0  0  0  0  0  0  0
   -8.9902   -2.2407  -24.5815 H   0  0  0  0  0  0  0  0  0  0  0  0
   -8.6000    0.6779  -23.8143 H   0  0  0  0  0  0  0  0  0  0  0  0
   -8.5446   -0.0325  -25.4632 H   0  0  0  0  0  0  0  0  0  0  0  0
  -14.6771   -0.6341  -23.3127 H   0  0  0  0  0  0  0  0  0  0  0  0
  -11.5834   -2.6664  -21.1845 H   0  0  0  0  0  0  0  0  0  0  0  0
   -7.5231   -2.1525  -21.0510 H   0  0  0  0  0  0  0  0  0  0  0  0
   -5.9711   -0.1245  -22.2147 H   0  0  0  0  0  0  0  0  0  0  0  0
   -4.2466    1.5246  -22.6977 H   0  0  0  0  0  0  0  0  0  0  0  0
   -3.2745    2.8893  -20.8959 H   0  0  0  0  0  0  0  0  0  0  0  0
   -3.9987    2.5910  -18.5869 H   0  0  0  0  0  0  0  0  0  0  0  0
   -5.4707    1.4151  -16.9313 H   0  0  0  0  0  0  0  0  0  0  0  0
   -8.1784   -1.4628  -18.1207 H   0  0  0  0  0  0  0  0  0  0  0  0
  1  2  2  0
  2  3  1  0
  2 15  1  0
  3  4  1  0
  3  7  1  0
  3 26  1  1
  4  5  1  0
  4 27  1  1
  4 28  1  0
  5  6  1  0
  5 29  1  1
  5 30  1  0
  6  8  1  0
  7  8  2  0
  7 12  1  0
  8  9  1  0
  9 10  1  0
  9 11  2  0
 11 13  1  0
 11 31  1  0
 12 13  2  0
 12 32  1  0
 13 14  1  0
 15 16  1  0
 15 33  1  0
 16 17  2  0
 16 25  1  0
 17 18  1  0
 17 22  1  0
 18 19  2  0
 18 34  1  0
 19 20  1  0
 19 35  1  0
 20 21  2  0
 20 36  1  0
 21 22  1  0
 21 37  1  0
 22 23  2  0
 23 24  1  0
 23 38  1  0
 24 25  2  0
 25 39  1  0
M  END
$$$$
