LIG(A-305)
     RDKit          3D

 40 43  0  0  1  0  0  0  0  0999 V2000
    9.2601    1.1526   21.0912 O   0  0  0  0  0  0  0  0  0  0  0  0
    8.7610    0.0997   21.4642 C   0  0  0  0  0  0  0  0  0  0  0  0
    7.7469   -0.5082   20.7663 N   0  0  0  0  0  0  0  0  0  0  0  0
    7.2299   -0.0472   19.5733 C   0  0  0  0  0  0  0  0  0  0  0  0
    5.9750    0.4889   19.4724 N   0  0  0  0  0  0  0  0  0  0  0  0
    4.9940    0.7030   20.5534 C   0  0  1  0  0  0  0  0  0  0  0  0
    5.1332    1.9180   21.4004 C   0  0  1  0  0  0  0  0  0  0  0  0
    4.0221    1.8191   20.4065 C   0  0  2  0  0  0  0  0  0  0  0  0
    5.8579    0.8399   18.1604 C   0  0  0  0  0  0  0  0  0  0  0  0
    6.9438    0.5627   17.5033 N   0  0  0  0  0  0  0  0  0  0  0  0
    7.8288   -0.0123   18.3973 N   0  0  0  0  0  0  0  0  0  0  0  0
    9.2131   -0.5773   22.7772 C   0  0  1  0  0  0  0  0  0  0  0  0
    8.9439   -2.0913   22.8913 C   0  0  1  0  0  0  0  0  0  0  0  0
   10.7301   -0.3945   22.8031 C   0  0  0  0  0  0  0  0  0  0  0  0
   11.5340   -1.0025   21.8491 C   0  0  0  0  0  0  0  0  0  0  0  0
   12.8950   -0.7487   21.8040 C   0  0  0  0  0  0  0  0  0  0  0  0
   13.4721    0.1133   22.7099 C   0  0  0  0  0  0  0  0  0  0  0  0
   12.6992    0.7204   23.6890 C   0  0  0  0  0  0  0  0  0  0  0  0
   11.3402    0.4465   23.7350 C   0  0  0  0  0  0  0  0  0  0  0  0
   10.6483    1.0136   24.7741 O   0  0  0  0  0  0  0  0  0  0  0  0
    9.2953    1.3617   24.4262 C   0  0  1  0  0  0  0  0  0  0  0  0
    8.5152    0.1528   23.9532 C   0  0  2  0  0  0  0  0  0  0  0  0
    7.3553   -1.3446   21.1499 H   0  0  0  0  0  0  0  0  0  0  0  0
    4.6214   -0.1997   21.0598 H   0  0  0  0  0  0  0  0  0  0  0  0
    4.9147    1.8663   22.4772 H   0  0  0  0  0  0  0  0  0  0  0  0
    5.9651    2.6166   21.2282 H   0  0  0  0  0  0  0  0  0  0  0  0
    2.9849    1.6946   20.7510 H   0  0  0  0  0  0  0  0  0  0  0  0
    4.0354    2.4449   19.5020 H   0  0  0  0  0  0  0  0  0  0  0  0
    4.9779    1.2893   17.7244 H   0  0  0  0  0  0  0  0  0  0  0  0
    9.3073   -2.4566   23.8631 H   0  0  0  0  0  0  0  0  0  0  0  0
    7.8630   -2.2786   22.8101 H   0  0  0  0  0  0  0  0  0  0  0  0
    9.4694   -2.6190   22.0816 H   0  0  0  0  0  0  0  0  0  0  0  0
   11.0935   -1.6813   21.1338 H   0  0  0  0  0  0  0  0  0  0  0  0
   13.5066   -1.2290   21.0547 H   0  0  0  0  0  0  0  0  0  0  0  0
   14.5313    0.3175   22.6578 H   0  0  0  0  0  0  0  0  0  0  0  0
   13.1480    1.3949   24.4032 H   0  0  0  0  0  0  0  0  0  0  0  0
    8.7966    1.7854   25.3104 H   0  0  0  0  0  0  0  0  0  0  0  0
    9.3149    2.1116   23.6216 H   0  0  0  0  0  0  0  0  0  0  0  0
    8.4097   -0.5502   24.7928 H   0  0  0  0  0  0  0  0  0  0  0  0
    7.5189    0.4821   23.6233 H   0  0  0  0  0  0  0  0  0  0  0  0
  1  2  2  0
  2  3  1  0
 12  2  1  6
  3  4  1  0
  3 23  1  0
  4  5  1  0
  4 11  2  0
  5  6  1  0
  5  9  1  0
  6  7  1  0
  6  8  1  0
  6 24  1  1
  7  8  1  0
  7 25  1  1
  7 26  1  0
  8 27  1  1
  8 28  1  0
  9 10  2  0
  9 29  1  0
 10 11  1  0
 12 13  1  0
 12 14  1  0
 12 22  1  0
 13 30  1  1
 13 31  1  0
 13 32  1  0
 14 15  2  0
 14 19  1  0
 15 16  1  0
 15 33  1  0
 16 17  2  0
 16 34  1  0
 17 18  1  0
 17 35  1  0
 18 19  2  0
 18 36  1  0
 19 20  1  0
 20 21  1  0
 21 22  1  0
 21 37  1  1
 21 38  1  0
 22 39  1  1
 22 40  1  0
M  END
$$$$
