LIG(A-305)
     RDKit          3D

 48 50  0  0  1  0  0  0  0  0999 V2000
    9.2825    0.9878   21.0505 O   0  0  0  0  0  0  0  0  0  0  0  0
    8.9645   -0.1852   21.2206 C   0  0  0  0  0  0  0  0  0  0  0  0
    7.8314   -0.7332   20.7249 N   0  0  0  0  0  0  0  0  0  0  0  0
    6.9402   -0.0972   19.8241 C   0  0  0  0  0  0  0  0  0  0  0  0
    7.1829   -0.0883   18.4490 C   0  0  0  0  0  0  0  0  0  0  0  0
    6.3998    0.5347   17.5632 N   0  0  0  0  0  0  0  0  0  0  0  0
    5.3209    1.1668   18.0344 C   0  0  0  0  0  0  0  0  0  0  0  0
    4.9902    1.2179   19.3744 C   0  0  0  0  0  0  0  0  0  0  0  0
    5.8054    0.5859   20.3083 C   0  0  0  0  0  0  0  0  0  0  0  0
    5.4937    0.6800   21.7793 C   0  0  1  0  0  0  0  0  0  0  0  0
    9.8467   -1.1502   21.9995 C   0  0  1  0  0  0  0  0  0  0  0  0
   10.1490   -0.7121   23.4434 C   0  0  2  0  0  0  0  0  0  0  0  0
   11.0961   -1.6011   24.2122 C   0  0  0  0  0  0  0  0  0  0  0  0
   12.3702   -1.2372   24.5609 C   0  0  0  0  0  0  0  0  0  0  0  0
   13.1934   -2.4852   25.4028 S   0  0  0  0  0  0  0  0  0  0  0  0
   11.8553   -3.5301   25.3261 C   0  0  0  0  0  0  0  0  0  0  0  0
   10.8062   -2.9251   24.6523 C   0  0  0  0  0  0  0  0  0  0  0  0
    8.9012   -0.3541   24.1676 N   0  0  1  0  0  0  0  0  0  0  0  0
    7.9912   -1.4750   24.4589 C   0  0  1  0  0  0  0  0  0  0  0  0
    6.6133   -0.9759   24.9042 C   0  0  1  0  0  0  0  0  0  0  0  0
    6.7246   -0.0339   26.0901 C   0  0  2  0  0  0  0  0  0  0  0  0
    5.4487    0.5552   26.3754 O   0  0  0  0  0  0  0  0  0  0  0  0
    7.7556    1.0551   25.8508 C   0  0  1  0  0  0  0  0  0  0  0  0
    9.0885    0.4700   25.3726 C   0  0  2  0  0  0  0  0  0  0  0  0
    7.6039   -1.6620   21.0175 H   0  0  0  0  0  0  0  0  0  0  0  0
    8.0516   -0.6139   18.0809 H   0  0  0  0  0  0  0  0  0  0  0  0
    4.6722    1.6648   17.3290 H   0  0  0  0  0  0  0  0  0  0  0  0
    4.1041    1.7452   19.6955 H   0  0  0  0  0  0  0  0  0  0  0  0
    6.3218    1.1846   22.2986 H   0  0  0  0  0  0  0  0  0  0  0  0
    4.5670    1.2553   21.9216 H   0  0  0  0  0  0  0  0  0  0  0  0
    5.3643   -0.3315   22.1920 H   0  0  0  0  0  0  0  0  0  0  0  0
    9.3407   -2.1263   22.0350 H   0  0  0  0  0  0  0  0  0  0  0  0
   10.8020   -1.2517   21.4637 H   0  0  0  0  0  0  0  0  0  0  0  0
   10.6913    0.2382   23.3309 H   0  0  0  0  0  0  0  0  0  0  0  0
   12.8060   -0.2758   24.3323 H   0  0  0  0  0  0  0  0  0  0  0  0
   11.8266   -4.5257   25.7438 H   0  0  0  0  0  0  0  0  0  0  0  0
    9.8579   -3.4114   24.4773 H   0  0  0  0  0  0  0  0  0  0  0  0
    8.3957    0.2296   23.5321 H   0  0  0  0  0  0  0  0  0  0  0  0
    7.8744   -2.0861   23.5516 H   0  0  0  0  0  0  0  0  0  0  0  0
    8.4256   -2.0893   25.2613 H   0  0  0  0  0  0  0  0  0  0  0  0
    6.1372   -0.4439   24.0674 H   0  0  0  0  0  0  0  0  0  0  0  0
    5.9943   -1.8394   25.1892 H   0  0  0  0  0  0  0  0  0  0  0  0
    7.0501   -0.6226   26.9605 H   0  0  0  0  0  0  0  0  0  0  0  0
    4.9354   -0.0420   26.9068 H   0  0  0  0  0  0  0  0  0  0  0  0
    7.3737    1.7470   25.0858 H   0  0  0  0  0  0  0  0  0  0  0  0
    7.9220    1.6026   26.7903 H   0  0  0  0  0  0  0  0  0  0  0  0
    9.7802    1.2933   25.1412 H   0  0  0  0  0  0  0  0  0  0  0  0
    9.5150   -0.1537   26.1720 H   0  0  0  0  0  0  0  0  0  0  0  0
  1  2  2  0
  2  3  1  0
  2 11  1  0
  3  4  1  0
  3 25  1  0
  4  5  2  0
  4  9  1  0
  5  6  1  0
  5 26  1  0
  6  7  2  0
  7  8  1  0
  7 27  1  0
  8  9  2  0
  8 28  1  0
  9 10  1  0
 10 29  1  1
 10 30  1  0
 10 31  1  0
 11 12  1  0
 11 32  1  1
 11 33  1  0
 12 13  1  0
 12 18  1  0
 12 34  1  6
 13 14  2  0
 13 17  1  0
 14 15  1  0
 14 35  1  0
 15 16  1  0
 16 17  2  0
 16 36  1  0
 17 37  1  0
 18 19  1  0
 18 24  1  0
 18 38  1  6
 19 20  1  0
 19 39  1  6
 19 40  1  0
 20 21  1  0
 20 41  1  6
 20 42  1  0
 21 22  1  0
 21 23  1  0
 21 43  1  1
 22 44  1  0
 23 24  1  0
 23 45  1  6
 23 46  1  0
 24 47  1  6
 24 48  1  0
M  CHG  1  18   1
M  END
$$$$
