LIG(A-306)
     RDKit          3D

 50 53  0  0  1  0  0  0  0  0999 V2000
   14.1728   -1.5292   21.2673 Cl  0  0  0  0  0  0  0  0  0  0  0  0
   13.0088   -0.7755   22.3250 C   0  0  0  0  0  0  0  0  0  0  0  0
   13.4292    0.2022   23.2026 C   0  0  0  0  0  0  0  0  0  0  0  0
   12.4985    0.8176   24.0227 C   0  0  0  0  0  0  0  0  0  0  0  0
   11.6814   -1.1472   22.2347 C   0  0  0  0  0  0  0  0  0  0  0  0
   10.7268   -0.5114   23.0302 C   0  0  0  0  0  0  0  0  0  0  0  0
   11.1467    0.4720   23.9437 C   0  0  0  0  0  0  0  0  0  0  0  0
   10.2350    1.1075   24.7685 N   0  0  0  0  0  0  0  0  0  0  0  0
    8.7933    0.9355   24.6233 C   0  0  1  0  0  0  0  0  0  0  0  0
    8.4730   -0.4751   24.1675 C   0  0  1  0  0  0  0  0  0  0  0  0
    9.2498   -0.8263   22.8798 C   0  0  1  0  0  0  0  0  0  0  0  0
    8.7033   -0.0453   21.6835 C   0  0  0  0  0  0  0  0  0  0  0  0
    9.2322    0.9945   21.2842 O   0  0  0  0  0  0  0  0  0  0  0  0
    7.5821   -0.5734   21.1278 N   0  0  0  0  0  0  0  0  0  0  0  0
    6.8262   -0.0581   20.0477 C   0  0  0  0  0  0  0  0  0  0  0  0
    7.0652   -0.3777   18.7106 C   0  0  0  0  0  0  0  0  0  0  0  0
    6.3909    0.1242   17.6634 N   0  0  0  0  0  0  0  0  0  0  0  0
    5.4138    0.9849   17.9209 C   0  0  0  0  0  0  0  0  0  0  0  0
    5.7832    0.8810   20.3271 C   0  0  0  0  0  0  0  0  0  0  0  0
    5.0536    1.4141   19.2238 C   0  0  0  0  0  0  0  0  0  0  0  0
    4.0314    2.3617   19.4741 C   0  0  0  0  0  0  0  0  0  0  0  0
    3.7573    2.7752   20.7440 C   0  0  0  0  0  0  0  0  0  0  0  0
    5.4605    1.3441   21.6286 C   0  0  0  0  0  0  0  0  0  0  0  0
    4.4723    2.2964   21.8431 C   0  0  0  0  0  0  0  0  0  0  0  0
    4.2551    2.8886   23.2376 C   0  0  2  0  0  0  0  0  0  0  0  0
    4.8619    2.0625   24.2531 O   0  0  0  0  0  0  0  0  0  0  0  0
    2.7682    2.9818   23.5676 C   0  0  1  0  0  0  0  0  0  0  0  0
    4.9076    4.2623   23.3443 C   0  0  1  0  0  0  0  0  0  0  0  0
   14.4707    0.4840   23.2496 H   0  0  0  0  0  0  0  0  0  0  0  0
   12.8194    1.5698   24.7280 H   0  0  0  0  0  0  0  0  0  0  0  0
   11.3831   -1.9278   21.5506 H   0  0  0  0  0  0  0  0  0  0  0  0
   10.5581    1.8879   25.3039 H   0  0  0  0  0  0  0  0  0  0  0  0
    8.3064    1.1229   25.5918 H   0  0  0  0  0  0  0  0  0  0  0  0
    8.4159    1.6516   23.8785 H   0  0  0  0  0  0  0  0  0  0  0  0
    8.7529   -1.1828   24.9617 H   0  0  0  0  0  0  0  0  0  0  0  0
    7.3937   -0.5538   23.9701 H   0  0  0  0  0  0  0  0  0  0  0  0
    9.1331   -1.9022   22.6828 H   0  0  0  0  0  0  0  0  0  0  0  0
    7.2515   -1.4275   21.5293 H   0  0  0  0  0  0  0  0  0  0  0  0
    7.8548   -1.0842   18.5015 H   0  0  0  0  0  0  0  0  0  0  0  0
    4.8577    1.3836   17.0853 H   0  0  0  0  0  0  0  0  0  0  0  0
    3.4617    2.7618   18.6485 H   0  0  0  0  0  0  0  0  0  0  0  0
    2.9658    3.4924   20.9038 H   0  0  0  0  0  0  0  0  0  0  0  0
    5.9980    0.9451   22.4761 H   0  0  0  0  0  0  0  0  0  0  0  0
    4.5854    2.3609   25.1116 H   0  0  0  0  0  0  0  0  0  0  0  0
    2.6414    3.4097   24.5731 H   0  0  0  0  0  0  0  0  0  0  0  0
    2.2685    3.6263   22.8293 H   0  0  0  0  0  0  0  0  0  0  0  0
    2.3224    1.9766   23.5382 H   0  0  0  0  0  0  0  0  0  0  0  0
    4.7408    4.6706   24.3520 H   0  0  0  0  0  0  0  0  0  0  0  0
    5.9882    4.1701   23.1604 H   0  0  0  0  0  0  0  0  0  0  0  0
    4.4647    4.9375   22.5973 H   0  0  0  0  0  0  0  0  0  0  0  0
  1  2  1  0
  2  3  1  0
  2  5  2  0
  3  4  2  0
  3 29  1  0
  4  7  1  0
  4 30  1  0
  5  6  1  0
  5 31  1  0
  6  7  2  0
  6 11  1  0
  7  8  1  0
  8  9  1  0
  8 32  1  0
  9 10  1  0
  9 33  1  1
  9 34  1  0
 10 11  1  0
 10 35  1  1
 10 36  1  0
 11 12  1  0
 11 37  1  6
 12 13  2  0
 12 14  1  0
 14 15  1  0
 14 38  1  0
 15 16  2  0
 15 19  1  0
 16 17  1  0
 16 39  1  0
 17 18  2  0
 18 20  1  0
 18 40  1  0
 19 20  2  0
 19 23  1  0
 20 21  1  0
 21 22  2  0
 21 41  1  0
 22 24  1  0
 22 42  1  0
 23 24  2  0
 23 43  1  0
 24 25  1  0
 25 26  1  1
 25 27  1  0
 25 28  1  0
 26 44  1  0
 27 45  1  1
 27 46  1  0
 27 47  1  0
 28 48  1  1
 28 49  1  0
 28 50  1  0
M  END
$$$$
