LIG(A-305)
     RDKit          3D

 47 49  0  0  1  0  0  0  0  0999 V2000
   13.4973    0.6371   23.7068 Cl  0  0  0  0  0  0  0  0  0  0  0  0
   11.8353    0.1813   23.9280 C   0  0  0  0  0  0  0  0  0  0  0  0
   11.1871   -0.4868   22.9111 C   0  0  0  0  0  0  0  0  0  0  0  0
   11.2155    0.4604   25.1311 C   0  0  0  0  0  0  0  0  0  0  0  0
    9.9055    0.0325   25.3242 C   0  0  0  0  0  0  0  0  0  0  0  0
    9.2687    0.3036   26.5333 N   0  0  0  0  0  0  0  0  0  0  0  0
    7.9097   -0.0762   26.8975 C   0  0  2  0  0  0  0  0  0  0  0  0
    6.8657    0.9879   26.5065 C   0  0  1  0  0  0  0  0  0  0  0  0
    6.5175    0.9228   25.1226 O   0  0  0  0  0  0  0  0  0  0  0  0
    5.6758    0.6290   27.3837 C   0  0  1  0  0  0  0  0  0  0  0  0
    6.2739    0.1551   28.7027 C   0  0  1  0  0  0  0  0  0  0  0  0
    7.7288   -0.2211   28.4155 C   0  0  2  0  0  0  0  0  0  0  0  0
    9.2463   -0.6515   24.3064 C   0  0  0  0  0  0  0  0  0  0  0  0
    9.8751   -0.9016   23.0923 C   0  0  0  0  0  0  0  0  0  0  0  0
    9.1209   -1.5526   21.9604 C   0  0  1  0  0  0  0  0  0  0  0  0
    8.4679   -0.4986   21.0905 C   0  0  0  0  0  0  0  0  0  0  0  0
    9.0070    0.5833   20.8593 O   0  0  0  0  0  0  0  0  0  0  0  0
    7.2678   -0.8556   20.5916 N   0  0  0  0  0  0  0  0  0  0  0  0
    6.5958   -0.1146   19.5987 C   0  0  0  0  0  0  0  0  0  0  0  0
    5.5039    0.6935   19.9517 C   0  0  0  0  0  0  0  0  0  0  0  0
    5.0441    0.8327   21.3798 C   0  0  1  0  0  0  0  0  0  0  0  0
    7.0126   -0.1327   18.2676 C   0  0  0  0  0  0  0  0  0  0  0  0
    6.4235    0.5753   17.3016 N   0  0  0  0  0  0  0  0  0  0  0  0
    5.3687    1.3254   17.6487 C   0  0  0  0  0  0  0  0  0  0  0  0
    4.8848    1.4115   18.9368 C   0  0  0  0  0  0  0  0  0  0  0  0
   11.6967   -0.6859   21.9800 H   0  0  0  0  0  0  0  0  0  0  0  0
   11.7379    1.0005   25.9069 H   0  0  0  0  0  0  0  0  0  0  0  0
    9.8656    0.5674   27.2910 H   0  0  0  0  0  0  0  0  0  0  0  0
    7.6439   -1.0282   26.4147 H   0  0  0  0  0  0  0  0  0  0  0  0
    7.2396    1.9867   26.7755 H   0  0  0  0  0  0  0  0  0  0  0  0
    6.8831    1.6726   24.6680 H   0  0  0  0  0  0  0  0  0  0  0  0
    5.0372    1.5100   27.5452 H   0  0  0  0  0  0  0  0  0  0  0  0
    5.0834   -0.1732   26.9194 H   0  0  0  0  0  0  0  0  0  0  0  0
    6.2312    0.9613   29.4498 H   0  0  0  0  0  0  0  0  0  0  0  0
    5.7226   -0.7205   29.0761 H   0  0  0  0  0  0  0  0  0  0  0  0
    8.4116    0.4569   28.9486 H   0  0  0  0  0  0  0  0  0  0  0  0
    7.9246   -1.2578   28.7269 H   0  0  0  0  0  0  0  0  0  0  0  0
    8.2333   -0.9921   24.4621 H   0  0  0  0  0  0  0  0  0  0  0  0
    9.8201   -2.1441   21.3511 H   0  0  0  0  0  0  0  0  0  0  0  0
    8.3451   -2.2137   22.3740 H   0  0  0  0  0  0  0  0  0  0  0  0
    6.8337   -1.6853   20.9425 H   0  0  0  0  0  0  0  0  0  0  0  0
    5.8616    1.2437   21.9903 H   0  0  0  0  0  0  0  0  0  0  0  0
    4.1787    1.5104   21.4218 H   0  0  0  0  0  0  0  0  0  0  0  0
    4.7559   -0.1547   21.7699 H   0  0  0  0  0  0  0  0  0  0  0  0
    7.8569   -0.7527   18.0047 H   0  0  0  0  0  0  0  0  0  0  0  0
    4.8703    1.8935   16.8771 H   0  0  0  0  0  0  0  0  0  0  0  0
    4.0295    2.0336   19.1552 H   0  0  0  0  0  0  0  0  0  0  0  0
  1  2  1  0
  2  3  2  0
  2  4  1  0
  3 14  1  0
  3 26  1  0
  4  5  2  0
  4 27  1  0
  5  6  1  0
  5 13  1  0
  6  7  1  0
  6 28  1  0
  7  8  1  0
  7 12  1  0
  7 29  1  6
  8  9  1  0
  8 10  1  0
  8 30  1  1
  9 31  1  0
 10 11  1  0
 10 32  1  1
 10 33  1  0
 11 12  1  0
 11 34  1  1
 11 35  1  0
 12 36  1  1
 12 37  1  0
 13 14  2  0
 13 38  1  0
 14 15  1  0
 15 16  1  0
 15 39  1  6
 15 40  1  0
 16 17  2  0
 16 18  1  0
 18 19  1  0
 18 41  1  0
 19 20  2  0
 19 22  1  0
 20 21  1  0
 20 25  1  0
 21 42  1  1
 21 43  1  0
 21 44  1  0
 22 23  2  0
 22 45  1  0
 23 24  1  0
 24 25  2  0
 24 46  1  0
 25 47  1  0
M  END
$$$$
