LIG(A-306)
     RDKit          3D

 40 42  0  0  1  0  0  0  0  0999 V2000
   14.7044   -1.4188   20.5742 Cl  0  0  0  0  0  0  0  0  0  0  0  0
   13.7632   -0.5554   21.7491 C   0  0  0  0  0  0  0  0  0  0  0  0
   14.2698    0.6029   22.3076 C   0  0  0  0  0  0  0  0  0  0  0  0
   13.4886    1.2959   23.2173 C   0  0  0  0  0  0  0  0  0  0  0  0
   12.2248    0.8297   23.5516 C   0  0  0  0  0  0  0  0  0  0  0  0
   12.5054   -1.0278   22.0674 C   0  0  0  0  0  0  0  0  0  0  0  0
   11.7192   -0.3287   22.9691 C   0  0  0  0  0  0  0  0  0  0  0  0
   10.3245   -0.8726   23.2329 C   0  0  1  0  0  0  0  0  0  0  0  0
   10.2131   -1.4203   24.6504 C   0  0  1  0  0  0  0  0  0  0  0  0
    9.3323    0.2012   23.0046 N   0  0  0  0  0  0  0  0  0  0  0  0
    9.0818    1.1752   24.0701 C   0  0  1  0  0  0  0  0  0  0  0  0
    8.7996    0.3729   21.7812 C   0  0  0  0  0  0  0  0  0  0  0  0
    8.9080    1.4346   21.1887 O   0  0  0  0  0  0  0  0  0  0  0  0
    8.0009   -0.7723   21.1540 C   0  0  1  0  0  0  0  0  0  0  0  0
    7.1858   -0.3003   20.0520 N   0  0  0  0  0  0  0  0  0  0  0  0
    6.0126    0.3958   20.0792 C   0  0  0  0  0  0  0  0  0  0  0  0
    5.7565    0.6863   18.7417 C   0  0  0  0  0  0  0  0  0  0  0  0
    6.7566    0.1374   17.9719 N   0  0  0  0  0  0  0  0  0  0  0  0
    7.6066   -0.4533   18.7705 N   0  0  0  0  0  0  0  0  0  0  0  0
    5.1830    0.8404   21.0975 C   0  0  0  0  0  0  0  0  0  0  0  0
    4.0892    1.6214   20.7480 C   0  0  0  0  0  0  0  0  0  0  0  0
    3.8301    1.9359   19.4144 C   0  0  0  0  0  0  0  0  0  0  0  0
    4.6507    1.4613   18.3993 C   0  0  0  0  0  0  0  0  0  0  0  0
   15.2535    0.9598   22.0404 H   0  0  0  0  0  0  0  0  0  0  0  0
   13.8642    2.2025   23.6682 H   0  0  0  0  0  0  0  0  0  0  0  0
   11.6280    1.3710   24.2706 H   0  0  0  0  0  0  0  0  0  0  0  0
   12.1365   -1.9369   21.6160 H   0  0  0  0  0  0  0  0  0  0  0  0
   10.1316   -1.6938   22.5270 H   0  0  0  0  0  0  0  0  0  0  0  0
    9.1967   -1.8070   24.8158 H   0  0  0  0  0  0  0  0  0  0  0  0
   10.9413   -2.2332   24.7875 H   0  0  0  0  0  0  0  0  0  0  0  0
   10.4212   -0.6161   25.3714 H   0  0  0  0  0  0  0  0  0  0  0  0
    8.3224    1.8976   23.7361 H   0  0  0  0  0  0  0  0  0  0  0  0
    8.7203    0.6518   24.9676 H   0  0  0  0  0  0  0  0  0  0  0  0
   10.0148    1.7075   24.3069 H   0  0  0  0  0  0  0  0  0  0  0  0
    8.7000   -1.5358   20.7819 H   0  0  0  0  0  0  0  0  0  0  0  0
    7.3474   -1.2155   21.9197 H   0  0  0  0  0  0  0  0  0  0  0  0
    5.3810    0.5876   22.1286 H   0  0  0  0  0  0  0  0  0  0  0  0
    3.4300    1.9903   21.5199 H   0  0  0  0  0  0  0  0  0  0  0  0
    2.9810    2.5561   19.1679 H   0  0  0  0  0  0  0  0  0  0  0  0
    4.4359    1.6884   17.3656 H   0  0  0  0  0  0  0  0  0  0  0  0
  1  2  1  0
  2  3  2  0
  2  6  1  0
  3  4  1  0
  3 24  1  0
  4  5  2  0
  4 25  1  0
  5  7  1  0
  5 26  1  0
  6  7  2  0
  6 27  1  0
  7  8  1  0
  8  9  1  0
  8 10  1  0
  8 28  1  6
  9 29  1  1
  9 30  1  0
  9 31  1  0
 10 11  1  0
 10 12  1  0
 11 32  1  6
 11 33  1  0
 11 34  1  0
 12 13  2  0
 12 14  1  0
 14 15  1  0
 14 35  1  6
 14 36  1  0
 15 16  1  0
 15 19  1  0
 16 17  2  0
 16 20  1  0
 17 18  1  0
 17 23  1  0
 18 19  2  0
 20 21  2  0
 20 37  1  0
 21 22  1  0
 21 38  1  0
 22 23  2  0
 22 39  1  0
 23 40  1  0
M  END
$$$$
