LIG(A-305)
     RDKit          3D

 33 35  0  0  0  0  0  0  0  0999 V2000
    9.2633    0.6348   21.0265 O   0  0  0  0  0  0  0  0  0  0  0  0
    8.6881   -0.4030   21.3466 C   0  0  0  0  0  0  0  0  0  0  0  0
    9.1482   -1.2421   22.5216 C   0  0  1  0  0  0  0  0  0  0  0  0
   10.5324   -0.8114   22.9363 C   0  0  0  0  0  0  0  0  0  0  0  0
   10.7478    0.1566   23.9112 C   0  0  0  0  0  0  0  0  0  0  0  0
   12.0429    0.5894   24.1429 C   0  0  0  0  0  0  0  0  0  0  0  0
   13.0956    0.0362   23.4277 C   0  0  0  0  0  0  0  0  0  0  0  0
   11.5361   -1.3646   22.2371 N   0  0  0  0  0  0  0  0  0  0  0  0
   12.7653   -0.9468   22.5088 C   0  0  0  0  0  0  0  0  0  0  0  0
   14.0349   -1.7940   21.6766 Cl  0  0  0  0  0  0  0  0  0  0  0  0
    7.5899   -0.8628   20.7199 N   0  0  0  0  0  0  0  0  0  0  0  0
    6.8458   -0.2137   19.7200 C   0  0  0  0  0  0  0  0  0  0  0  0
    5.7041    0.5445   20.1162 C   0  0  0  0  0  0  0  0  0  0  0  0
    5.2614    0.6596   21.4583 C   0  0  0  0  0  0  0  0  0  0  0  0
    4.1526    1.3928   21.7695 C   0  0  0  0  0  0  0  0  0  0  0  0
    3.4345    2.0429   20.7786 C   0  0  0  0  0  0  0  0  0  0  0  0
    3.8322    1.9828   19.4766 C   0  0  0  0  0  0  0  0  0  0  0  0
    4.9750    1.2336   19.1083 C   0  0  0  0  0  0  0  0  0  0  0  0
    5.4447    1.1355   17.7773 C   0  0  0  0  0  0  0  0  0  0  0  0
    6.5175    0.4463   17.4141 N   0  0  0  0  0  0  0  0  0  0  0  0
    7.1826   -0.2118   18.3689 C   0  0  0  0  0  0  0  0  0  0  0  0
    8.4540   -1.1053   23.3638 H   0  0  0  0  0  0  0  0  0  0  0  0
    9.1664   -2.3026   22.2299 H   0  0  0  0  0  0  0  0  0  0  0  0
    9.9219    0.5627   24.4763 H   0  0  0  0  0  0  0  0  0  0  0  0
   12.2332    1.3563   24.8792 H   0  0  0  0  0  0  0  0  0  0  0  0
   14.1165    0.3544   23.5791 H   0  0  0  0  0  0  0  0  0  0  0  0
    7.2670   -1.7679   20.9966 H   0  0  0  0  0  0  0  0  0  0  0  0
    5.8084    0.1607   22.2446 H   0  0  0  0  0  0  0  0  0  0  0  0
    3.8319    1.4669   22.7982 H   0  0  0  0  0  0  0  0  0  0  0  0
    2.5496    2.6036   21.0412 H   0  0  0  0  0  0  0  0  0  0  0  0
    3.2711    2.5110   18.7199 H   0  0  0  0  0  0  0  0  0  0  0  0
    4.8939    1.6556   17.0076 H   0  0  0  0  0  0  0  0  0  0  0  0
    8.0470   -0.7858   18.0696 H   0  0  0  0  0  0  0  0  0  0  0  0
  1  2  2  0
  2  3  1  0
  2 11  1  0
  3  4  1  0
  3 22  1  1
  3 23  1  0
  4  5  2  0
  4  8  1  0
  5  6  1  0
  5 24  1  0
  6  7  2  0
  6 25  1  0
  7  9  1  0
  7 26  1  0
  8  9  2  0
  9 10  1  0
 11 12  1  0
 11 27  1  0
 12 13  2  0
 12 21  1  0
 13 14  1  0
 13 18  1  0
 14 15  2  0
 14 28  1  0
 15 16  1  0
 15 29  1  0
 16 17  2  0
 16 30  1  0
 17 18  1  0
 17 31  1  0
 18 19  2  0
 19 20  1  0
 19 32  1  0
 20 21  2  0
 21 33  1  0
M  END
$$$$
