LIG(A-305)
     RDKit          3D

 47 48  0  0  1  0  0  0  0  0999 V2000
    7.4527   -2.6551   18.3805 C   0  0  1  0  0  0  0  0  0  0  0  0
    6.4578   -2.7950   19.5095 C   0  0  0  0  0  0  0  0  0  0  0  0
    5.3807   -3.3230   19.3706 O   0  0  0  0  0  0  0  0  0  0  0  0
    6.8159   -2.2250   20.6745 N   0  0  0  0  0  0  0  0  0  0  0  0
    6.3189   -2.7329   21.9505 C   0  0  1  0  0  0  0  0  0  0  0  0
    7.7500   -1.1081   20.8244 C   0  0  1  0  0  0  0  0  0  0  0  0
    8.9090   -1.5291   21.7063 C   0  0  1  0  0  0  0  0  0  0  0  0
    8.4521   -2.1190   22.9834 N   0  0  1  0  0  0  0  0  0  0  0  0
    7.4980   -3.2380   22.7645 C   0  0  1  0  0  0  0  0  0  0  0  0
    7.0760   -3.9299   24.0615 C   0  0  1  0  0  0  0  0  0  0  0  0
    6.0879   -5.0918   23.9076 C   0  0  1  0  0  0  0  0  0  0  0  0
    6.5457   -6.1369   22.8827 C   0  0  1  0  0  0  0  0  0  0  0  0
    5.8249   -5.7477   25.2527 C   0  0  1  0  0  0  0  0  0  0  0  0
    9.6031   -2.5011   23.8173 C   0  0  1  0  0  0  0  0  0  0  0  0
   10.7691   -1.5432   23.7272 C   0  0  0  0  0  0  0  0  0  0  0  0
   11.7731   -1.7473   22.7851 C   0  0  0  0  0  0  0  0  0  0  0  0
   12.7951   -0.8284   22.6630 C   0  0  0  0  0  0  0  0  0  0  0  0
   14.0460   -1.1125   21.4839 Cl  0  0  0  0  0  0  0  0  0  0  0  0
   12.8613    0.2917   23.4620 C   0  0  0  0  0  0  0  0  0  0  0  0
   11.8753    0.4838   24.4180 C   0  0  0  0  0  0  0  0  0  0  0  0
   10.8403   -0.4271   24.5491 C   0  0  0  0  0  0  0  0  0  0  0  0
    7.0340   -3.0987   17.4650 H   0  0  0  0  0  0  0  0  0  0  0  0
    7.6640   -1.5895   18.2080 H   0  0  0  0  0  0  0  0  0  0  0  0
    8.3847   -3.1753   18.6466 H   0  0  0  0  0  0  0  0  0  0  0  0
    5.8098   -1.9257   22.4975 H   0  0  0  0  0  0  0  0  0  0  0  0
    5.6125   -3.5568   21.7714 H   0  0  0  0  0  0  0  0  0  0  0  0
    8.1307   -0.8140   19.8351 H   0  0  0  0  0  0  0  0  0  0  0  0
    7.2301   -0.2554   21.2855 H   0  0  0  0  0  0  0  0  0  0  0  0
    9.5121   -2.2745   21.1672 H   0  0  0  0  0  0  0  0  0  0  0  0
    9.5272   -0.6460   21.9249 H   0  0  0  0  0  0  0  0  0  0  0  0
    7.9555   -1.4042   23.4758 H   0  0  0  0  0  0  0  0  0  0  0  0
    8.0120   -3.9933   22.1519 H   0  0  0  0  0  0  0  0  0  0  0  0
    7.9830   -4.3203   24.5462 H   0  0  0  0  0  0  0  0  0  0  0  0
    6.6097   -3.1742   24.7107 H   0  0  0  0  0  0  0  0  0  0  0  0
    5.1365   -4.6719   23.5493 H   0  0  0  0  0  0  0  0  0  0  0  0
    5.7976   -6.9407   22.8186 H   0  0  0  0  0  0  0  0  0  0  0  0
    6.6566   -5.6601   21.8975 H   0  0  0  0  0  0  0  0  0  0  0  0
    7.5117   -6.5594   23.1964 H   0  0  0  0  0  0  0  0  0  0  0  0
    5.1150   -6.5780   25.1238 H   0  0  0  0  0  0  0  0  0  0  0  0
    6.7696   -6.1337   25.6632 H   0  0  0  0  0  0  0  0  0  0  0  0
    5.3999   -5.0063   25.9453 H   0  0  0  0  0  0  0  0  0  0  0  0
    9.2719   -2.5460   24.8653 H   0  0  0  0  0  0  0  0  0  0  0  0
    9.9468   -3.4961   23.4984 H   0  0  0  0  0  0  0  0  0  0  0  0
   11.7522   -2.6219   22.1519 H   0  0  0  0  0  0  0  0  0  0  0  0
   13.6638    1.0050   23.3463 H   0  0  0  0  0  0  0  0  0  0  0  0
   11.9149    1.3484   25.0639 H   0  0  0  0  0  0  0  0  0  0  0  0
   10.0801   -0.2672   25.2994 H   0  0  0  0  0  0  0  0  0  0  0  0
  1  2  1  0
  1 22  1  6
  1 23  1  0
  1 24  1  0
  2  3  2  0
  2  4  1  0
  4  5  1  0
  4  6  1  0
  5  9  1  0
  5 25  1  1
  5 26  1  0
  6  7  1  0
  6 27  1  6
  6 28  1  0
  7  8  1  0
  7 29  1  6
  7 30  1  0
  8  9  1  0
  8 14  1  0
  8 31  1  1
  9 10  1  0
  9 32  1  6
 10 11  1  0
 10 33  1  1
 10 34  1  0
 11 12  1  0
 11 13  1  0
 11 35  1  6
 12 36  1  6
 12 37  1  0
 12 38  1  0
 13 39  1  6
 13 40  1  0
 13 41  1  0
 14 15  1  0
 14 42  1  1
 14 43  1  0
 15 16  2  0
 15 21  1  0
 16 17  1  0
 16 44  1  0
 17 18  1  0
 17 19  2  0
 19 20  1  0
 19 45  1  0
 20 21  2  0
 20 46  1  0
 21 47  1  0
M  CHG  1   8   1
M  END
$$$$
