LIG(A-306)
     RDKit          3D

 50 53  0  0  1  0  0  0  0  0999 V2000
    9.2896    1.1537   21.1891 O   0  0  0  0  0  0  0  0  0  0  0  0
    8.8039    0.1602   21.7209 C   0  0  0  0  0  0  0  0  0  0  0  0
    9.4640   -0.4721   22.9642 C   0  0  1  0  0  0  0  0  0  0  0  0
   10.9644   -0.1815   22.9912 C   0  0  0  0  0  0  0  0  0  0  0  0
   11.8323   -0.9184   22.1860 C   0  0  0  0  0  0  0  0  0  0  0  0
   13.1816   -0.6152   22.1829 C   0  0  0  0  0  0  0  0  0  0  0  0
   14.2288   -1.4433   21.0612 Cl  0  0  0  0  0  0  0  0  0  0  0  0
   13.7071    0.3770   22.9831 C   0  0  0  0  0  0  0  0  0  0  0  0
   12.8662    1.0941   23.8154 C   0  0  0  0  0  0  0  0  0  0  0  0
   11.5088    0.8209   23.8094 C   0  0  0  0  0  0  0  0  0  0  0  0
   10.7477    1.6490   24.6011 O   0  0  0  0  0  0  0  0  0  0  0  0
    9.3069    1.5610   24.4682 C   0  0  1  0  0  0  0  0  0  0  0  0
    8.8083    0.1575   24.2150 C   0  0  2  0  0  0  0  0  0  0  0  0
    9.2286   -1.9920   23.1027 C   0  0  1  0  0  0  0  0  0  0  0  0
    9.9267   -2.5658   24.2417 N   0  0  0  0  0  0  0  0  0  0  0  0
    9.6484   -3.7780   24.7406 C   0  0  0  0  0  0  0  0  0  0  0  0
    8.8043   -4.5272   24.2971 O   0  0  0  0  0  0  0  0  0  0  0  0
   10.4398   -4.0559   25.7912 O   0  0  0  0  0  0  0  0  0  0  0  0
   10.3689   -5.4116   26.2949 C   0  0  1  0  0  0  0  0  0  0  0  0
    7.6583   -0.4048   21.2654 N   0  0  0  0  0  0  0  0  0  0  0  0
    6.9095    0.0620   20.1589 C   0  0  0  0  0  0  0  0  0  0  0  0
    5.7704    0.8935   20.4015 C   0  0  0  0  0  0  0  0  0  0  0  0
    5.2754    1.2007   21.6969 C   0  0  0  0  0  0  0  0  0  0  0  0
    4.1775    1.9960   21.8607 C   0  0  0  0  0  0  0  0  0  0  0  0
    3.5195    2.5310   20.7589 C   0  0  0  0  0  0  0  0  0  0  0  0
    3.9604    2.2718   19.4923 C   0  0  0  0  0  0  0  0  0  0  0  0
    5.0924    1.4464   19.2756 C   0  0  0  0  0  0  0  0  0  0  0  0
    5.5875    1.1322   17.9883 C   0  0  0  0  0  0  0  0  0  0  0  0
    6.6453    0.3645   17.7633 N   0  0  0  0  0  0  0  0  0  0  0  0
    7.2753   -0.1527   18.8291 C   0  0  0  0  0  0  0  0  0  0  0  0
   11.4535   -1.7201   21.5694 H   0  0  0  0  0  0  0  0  0  0  0  0
   14.7652    0.5924   22.9605 H   0  0  0  0  0  0  0  0  0  0  0  0
   13.2649    1.8602   24.4639 H   0  0  0  0  0  0  0  0  0  0  0  0
    8.8486    1.9307   25.3972 H   0  0  0  0  0  0  0  0  0  0  0  0
    8.9956    2.1978   23.6270 H   0  0  0  0  0  0  0  0  0  0  0  0
    9.0418   -0.4659   25.0906 H   0  0  0  0  0  0  0  0  0  0  0  0
    7.7187    0.1888   24.0672 H   0  0  0  0  0  0  0  0  0  0  0  0
    8.1501   -2.1716   23.2238 H   0  0  0  0  0  0  0  0  0  0  0  0
    9.5823   -2.4879   22.1867 H   0  0  0  0  0  0  0  0  0  0  0  0
   10.6508   -2.0288   24.6746 H   0  0  0  0  0  0  0  0  0  0  0  0
   11.0541   -5.5226   27.1483 H   0  0  0  0  0  0  0  0  0  0  0  0
    9.3406   -5.6286   26.6198 H   0  0  0  0  0  0  0  0  0  0  0  0
   10.6578   -6.1139   25.4991 H   0  0  0  0  0  0  0  0  0  0  0  0
    7.3171   -1.2117   21.7475 H   0  0  0  0  0  0  0  0  0  0  0  0
    5.7752    0.7991   22.5659 H   0  0  0  0  0  0  0  0  0  0  0  0
    3.8167    2.2114   22.8557 H   0  0  0  0  0  0  0  0  0  0  0  0
    2.6519    3.1572   20.9058 H   0  0  0  0  0  0  0  0  0  0  0  0
    3.4414    2.6999   18.6474 H   0  0  0  0  0  0  0  0  0  0  0  0
    5.0709    1.5437   17.1338 H   0  0  0  0  0  0  0  0  0  0  0  0
    8.1317   -0.7840   18.6436 H   0  0  0  0  0  0  0  0  0  0  0  0
  1  2  2  0
  3  2  1  6
  2 20  1  0
  3  4  1  0
  3 13  1  0
  3 14  1  0
  4  5  2  0
  4 10  1  0
  5  6  1  0
  5 31  1  0
  6  7  1  0
  6  8  2  0
  8  9  1  0
  8 32  1  0
  9 10  2  0
  9 33  1  0
 10 11  1  0
 11 12  1  0
 12 13  1  0
 12 34  1  1
 12 35  1  0
 13 36  1  1
 13 37  1  0
 14 15  1  0
 14 38  1  1
 14 39  1  0
 15 16  1  0
 15 40  1  0
 16 17  2  0
 16 18  1  0
 18 19  1  0
 19 41  1  1
 19 42  1  0
 19 43  1  0
 20 21  1  0
 20 44  1  0
 21 22  2  0
 21 30  1  0
 22 23  1  0
 22 27  1  0
 23 24  2  0
 23 45  1  0
 24 25  1  0
 24 46  1  0
 25 26  2  0
 25 47  1  0
 26 27  1  0
 26 48  1  0
 27 28  2  0
 28 29  1  0
 28 49  1  0
 29 30  2  0
 30 50  1  0
M  END
$$$$
