LIG(A-305)
     RDKit          3D

 38 39  0  0  0  0  0  0  0  0999 V2000
    7.5025   -2.5093   18.3053 C   0  0  1  0  0  0  0  0  0  0  0  0
    7.9107   -1.1144   18.7563 C   0  0  1  0  0  0  0  0  0  0  0  0
    6.7967   -0.1023   18.4883 C   0  0  0  0  0  0  0  0  0  0  0  0
    5.7728    0.1548   19.4663 N   0  0  0  0  0  0  0  0  0  0  0  0
    5.7098   -0.4401   20.7654 C   0  0  1  0  0  0  0  0  0  0  0  0
    5.8369    0.6429   21.8493 C   0  0  1  0  0  0  0  0  0  0  0  0
    5.0490    1.7819   21.5823 N   0  0  1  0  0  0  0  0  0  0  0  0
    5.0391    2.6620   22.4863 C   0  0  1  0  0  0  0  0  0  0  0  0
    6.3312    3.4719   22.7022 C   0  0  0  0  0  0  0  0  0  0  0  0
    7.2912    3.0728   23.6312 C   0  0  0  0  0  0  0  0  0  0  0  0
    8.4253    3.8418   23.8541 C   0  0  0  0  0  0  0  0  0  0  0  0
    6.4852    4.6938   22.0662 C   0  0  0  0  0  0  0  0  0  0  0  0
    7.6163    5.4618   22.2971 C   0  0  0  0  0  0  0  0  0  0  0  0
    8.5593    5.0657   23.2210 C   0  0  0  0  0  0  0  0  0  0  0  0
    9.6524    5.8547   23.4230 F   0  0  0  0  0  0  0  0  0  0  0  0
    4.8680    2.2619   20.2663 C   0  0  1  0  0  0  0  0  0  0  0  0
    4.7478    1.1259   19.2444 C   0  0  2  0  0  0  0  0  0  0  0  0
    6.7487    0.4887   17.4713 O   0  0  0  0  0  0  0  0  0  0  0  0
    8.3209   -3.2154   18.5097 H   0  0  0  0  0  0  0  0  0  0  0  0
    6.6021   -2.8231   18.8539 H   0  0  0  0  0  0  0  0  0  0  0  0
    7.2891   -2.4980   17.2263 H   0  0  0  0  0  0  0  0  0  0  0  0
    8.1265   -1.1340   19.8346 H   0  0  0  0  0  0  0  0  0  0  0  0
    8.8134   -0.8089   18.2071 H   0  0  0  0  0  0  0  0  0  0  0  0
    4.7472   -0.9597   20.8813 H   0  0  0  0  0  0  0  0  0  0  0  0
    6.5320   -1.1627   20.8748 H   0  0  0  0  0  0  0  0  0  0  0  0
    5.5204    0.2149   22.8119 H   0  0  0  0  0  0  0  0  0  0  0  0
    6.8905    0.9523   21.9144 H   0  0  0  0  0  0  0  0  0  0  0  0
    4.1446    1.3797   21.7246 H   0  0  0  0  0  0  0  0  0  0  0  0
    4.2390    3.3763   22.2424 H   0  0  0  0  0  0  0  0  0  0  0  0
    4.8036    2.1575   23.4350 H   0  0  0  0  0  0  0  0  0  0  0  0
    7.1510    2.1554   24.1834 H   0  0  0  0  0  0  0  0  0  0  0  0
    9.1994    3.4868   24.5182 H   0  0  0  0  0  0  0  0  0  0  0  0
    5.7223    5.0486   21.3891 H   0  0  0  0  0  0  0  0  0  0  0  0
    7.7600    6.3800   21.7471 H   0  0  0  0  0  0  0  0  0  0  0  0
    3.9493    2.8661   20.2333 H   0  0  0  0  0  0  0  0  0  0  0  0
    5.7299    2.8901   19.9972 H   0  0  0  0  0  0  0  0  0  0  0  0
    3.7635    0.6460   19.3479 H   0  0  0  0  0  0  0  0  0  0  0  0
    4.8502    1.5374   18.2293 H   0  0  0  0  0  0  0  0  0  0  0  0
  1  2  1  0
  1 19  1  6
  1 20  1  0
  1 21  1  0
  2  3  1  0
  2 22  1  1
  2 23  1  0
  3  4  1  0
  3 18  2  0
  4  5  1  0
  4 17  1  0
  5  6  1  0
  5 24  1  1
  5 25  1  0
  6  7  1  0
  6 26  1  1
  6 27  1  0
  7  8  1  0
  7 16  1  0
  7 28  1  1
  8  9  1  0
  8 29  1  6
  8 30  1  0
  9 10  2  0
  9 12  1  0
 10 11  1  0
 10 31  1  0
 11 14  2  0
 11 32  1  0
 12 13  2  0
 12 33  1  0
 13 14  1  0
 13 34  1  0
 14 15  1  0
 16 17  1  0
 16 35  1  1
 16 36  1  0
 17 37  1  6
 17 38  1  0
M  CHG  1   7   1
M  END
$$$$
