LIG(A-305)
     RDKit          3D

 39 40  0  0  0  0  0  0  0  0999 V2000
    5.7889   -4.9450   19.6101 O   0  0  0  0  0  0  0  0  0  0  0  0
    6.4611   -4.0811   20.1490 C   0  0  0  0  0  0  0  0  0  0  0  0
    7.0241   -2.9261   19.3469 C   0  0  1  0  0  0  0  0  0  0  0  0
    6.7433   -4.1141   21.4620 N   0  0  0  0  0  0  0  0  0  0  0  0
    6.2974   -5.2390   22.2961 C   0  0  1  0  0  0  0  0  0  0  0  0
    5.3226   -4.7539   23.3612 C   0  0  1  0  0  0  0  0  0  0  0  0
    7.4026   -3.0401   22.2188 C   0  0  1  0  0  0  0  0  0  0  0  0
    6.4788   -2.5110   23.3200 C   0  0  1  0  0  0  0  0  0  0  0  0
    6.0068   -3.6719   24.2091 C   0  0  1  0  0  0  0  0  0  0  0  0
    5.0861   -3.1778   25.3042 C   0  0  0  0  0  0  0  0  0  0  0  0
    3.8920   -3.0347   25.0954 O   0  0  0  0  0  0  0  0  0  0  0  0
    5.6233   -2.9478   26.5351 N   0  0  0  0  0  0  0  0  0  0  0  0
    4.8425   -2.2367   27.5432 C   0  0  1  0  0  0  0  0  0  0  0  0
    6.9393   -3.3569   26.9239 C   0  0  0  0  0  0  0  0  0  0  0  0
    7.9974   -2.4540   26.8447 C   0  0  0  0  0  0  0  0  0  0  0  0
    9.2944   -2.9041   27.0345 C   0  0  0  0  0  0  0  0  0  0  0  0
    9.5413   -4.2372   27.3125 C   0  0  0  0  0  0  0  0  0  0  0  0
    8.4882   -5.1221   27.4387 C   0  0  0  0  0  0  0  0  0  0  0  0
    7.1852   -4.6899   27.2539 C   0  0  0  0  0  0  0  0  0  0  0  0
    6.7251   -3.0304   18.2934 H   0  0  0  0  0  0  0  0  0  0  0  0
    6.6345   -1.9781   19.7463 H   0  0  0  0  0  0  0  0  0  0  0  0
    8.1217   -2.9307   19.4185 H   0  0  0  0  0  0  0  0  0  0  0  0
    5.7987   -5.9861   21.6612 H   0  0  0  0  0  0  0  0  0  0  0  0
    7.1702   -5.6969   22.7845 H   0  0  0  0  0  0  0  0  0  0  0  0
    4.4280   -4.3334   22.8785 H   0  0  0  0  0  0  0  0  0  0  0  0
    5.0300   -5.5966   24.0048 H   0  0  0  0  0  0  0  0  0  0  0  0
    8.3226   -3.4326   22.6765 H   0  0  0  0  0  0  0  0  0  0  0  0
    7.6559   -2.2178   21.5335 H   0  0  0  0  0  0  0  0  0  0  0  0
    7.0249   -1.7798   23.9341 H   0  0  0  0  0  0  0  0  0  0  0  0
    5.6054   -2.0247   22.8609 H   0  0  0  0  0  0  0  0  0  0  0  0
    6.8936   -4.1204   24.6808 H   0  0  0  0  0  0  0  0  0  0  0  0
    5.4327   -2.1442   28.4668 H   0  0  0  0  0  0  0  0  0  0  0  0
    4.5874   -1.2341   27.1693 H   0  0  0  0  0  0  0  0  0  0  0  0
    3.9187   -2.7958   27.7530 H   0  0  0  0  0  0  0  0  0  0  0  0
    7.8083   -1.4112   26.6370 H   0  0  0  0  0  0  0  0  0  0  0  0
   10.1184   -2.2095   26.9649 H   0  0  0  0  0  0  0  0  0  0  0  0
   10.5568   -4.5853   27.4307 H   0  0  0  0  0  0  0  0  0  0  0  0
    8.6818   -6.1562   27.6827 H   0  0  0  0  0  0  0  0  0  0  0  0
    6.3634   -5.3819   27.3648 H   0  0  0  0  0  0  0  0  0  0  0  0
  1  2  2  0
  2  3  1  0
  2  4  1  0
  3 20  1  6
  3 21  1  0
  3 22  1  0
  4  5  1  0
  4  7  1  0
  5  6  1  0
  5 23  1  6
  5 24  1  0
  6  9  1  0
  6 25  1  6
  6 26  1  0
  7  8  1  0
  7 27  1  1
  7 28  1  0
  8  9  1  0
  8 29  1  1
  8 30  1  0
  9 10  1  0
  9 31  1  1
 10 11  2  0
 10 12  1  0
 12 13  1  0
 12 14  1  0
 13 32  1  1
 13 33  1  0
 13 34  1  0
 14 15  2  0
 14 19  1  0
 15 16  1  0
 15 35  1  0
 16 17  2  0
 16 36  1  0
 17 18  1  0
 17 37  1  0
 18 19  2  0
 18 38  1  0
 19 39  1  0
M  END
$$$$
