LIG(A-306)
     RDKit          3D

 41 43  0  0  0  0  0  0  0  0999 V2000
    9.2483    1.0247   21.5420 O   0  0  0  0  0  0  0  0  0  0  0  0
    8.9432   -0.0716   21.9983 C   0  0  0  0  0  0  0  0  0  0  0  0
    7.5525   -0.6615   21.7535 C   0  0  1  0  0  0  0  0  0  0  0  0
    7.0254   -0.2759   20.4613 N   0  0  0  0  0  0  0  0  0  0  0  0
    5.9371    0.4876   20.1659 C   0  0  0  0  0  0  0  0  0  0  0  0
    5.0114    1.1756   20.9380 C   0  0  0  0  0  0  0  0  0  0  0  0
    4.0223    1.8875   20.2749 C   0  0  0  0  0  0  0  0  0  0  0  0
    3.9641    1.9045   18.8838 C   0  0  0  0  0  0  0  0  0  0  0  0
    4.8898    1.2064   18.1187 C   0  0  0  0  0  0  0  0  0  0  0  0
    5.8878    0.4906   18.7758 C   0  0  0  0  0  0  0  0  0  0  0  0
    6.9335   -0.2658   18.2971 N   0  0  0  0  0  0  0  0  0  0  0  0
    7.6109   -0.7144   19.3177 N   0  0  0  0  0  0  0  0  0  0  0  0
    9.7972   -0.7892   22.7613 N   0  0  0  0  0  0  0  0  0  0  0  0
    9.8690   -2.2461   22.7616 C   0  0  1  0  0  0  0  0  0  0  0  0
   10.6963   -0.0968   23.6994 C   0  0  1  0  0  0  0  0  0  0  0  0
   12.0409    0.2839   23.1192 C   0  0  0  0  0  0  0  0  0  0  0  0
   12.6564    1.4948   23.4566 C   0  0  0  0  0  0  0  0  0  0  0  0
   11.8804    2.3738   24.1568 O   0  0  0  0  0  0  0  0  0  0  0  0
   11.6073    3.6382   23.5464 C   0  0  1  0  0  0  0  0  0  0  0  0
   12.7180   -0.5840   22.2649 C   0  0  0  0  0  0  0  0  0  0  0  0
   13.9596   -0.2361   21.7738 C   0  0  0  0  0  0  0  0  0  0  0  0
   14.6722   -1.2110   20.5200 Cl  0  0  0  0  0  0  0  0  0  0  0  0
   14.5872    0.9240   22.1584 C   0  0  0  0  0  0  0  0  0  0  0  0
   13.9311    1.7970   23.0048 C   0  0  0  0  0  0  0  0  0  0  0  0
    7.6179   -1.7586   21.7984 H   0  0  0  0  0  0  0  0  0  0  0  0
    6.8702   -0.3024   22.5380 H   0  0  0  0  0  0  0  0  0  0  0  0
    5.0593    1.1575   22.0168 H   0  0  0  0  0  0  0  0  0  0  0  0
    3.2875    2.4360   20.8455 H   0  0  0  0  0  0  0  0  0  0  0  0
    3.1863    2.4695   18.3915 H   0  0  0  0  0  0  0  0  0  0  0  0
    4.8371    1.2185   17.0401 H   0  0  0  0  0  0  0  0  0  0  0  0
   10.6442   -2.5754   23.4690 H   0  0  0  0  0  0  0  0  0  0  0  0
    8.8963   -2.6609   23.0645 H   0  0  0  0  0  0  0  0  0  0  0  0
   10.1203   -2.6008   21.7512 H   0  0  0  0  0  0  0  0  0  0  0  0
   10.1964    0.8225   24.0384 H   0  0  0  0  0  0  0  0  0  0  0  0
   10.8695   -0.7590   24.5606 H   0  0  0  0  0  0  0  0  0  0  0  0
   10.9762    4.2408   24.2164 H   0  0  0  0  0  0  0  0  0  0  0  0
   12.5535    4.1672   23.3600 H   0  0  0  0  0  0  0  0  0  0  0  0
   11.0822    3.4792   22.5930 H   0  0  0  0  0  0  0  0  0  0  0  0
   12.2717   -1.5276   21.9875 H   0  0  0  0  0  0  0  0  0  0  0  0
   15.5817    1.1509   21.8033 H   0  0  0  0  0  0  0  0  0  0  0  0
   14.4111    2.7137   23.3138 H   0  0  0  0  0  0  0  0  0  0  0  0
  1  2  2  0
  2  3  1  0
  2 13  1  0
  3  4  1  0
  3 25  1  6
  3 26  1  0
  4  5  1  0
  4 12  1  0
  5  6  2  0
  5 10  1  0
  6  7  1  0
  6 27  1  0
  7  8  2  0
  7 28  1  0
  8  9  1  0
  8 29  1  0
  9 10  2  0
  9 30  1  0
 10 11  1  0
 11 12  2  0
 13 14  1  0
 13 15  1  0
 14 31  1  1
 14 32  1  0
 14 33  1  0
 15 16  1  0
 15 34  1  1
 15 35  1  0
 16 17  2  0
 16 20  1  0
 17 18  1  0
 17 24  1  0
 18 19  1  0
 19 36  1  1
 19 37  1  0
 19 38  1  0
 20 21  2  0
 20 39  1  0
 21 22  1  0
 21 23  1  0
 23 24  2  0
 23 40  1  0
 24 41  1  0
M  END
$$$$
