LIG(A-306)
     RDKit          3D

 50 53  0  0  1  0  0  0  0  0999 V2000
    9.4530    1.1095   21.1146 O   0  0  0  0  0  0  0  0  0  0  0  0
    8.9265    0.1408   21.6472 C   0  0  0  0  0  0  0  0  0  0  0  0
    9.5323   -0.4712   22.9231 C   0  0  1  0  0  0  0  0  0  0  0  0
   11.0446   -0.1993   22.9570 C   0  0  0  0  0  0  0  0  0  0  0  0
   11.8921   -0.8900   22.0934 C   0  0  0  0  0  0  0  0  0  0  0  0
   13.2293   -0.5481   22.0408 C   0  0  0  0  0  0  0  0  0  0  0  0
   14.2600   -1.3602   20.8980 Cl  0  0  0  0  0  0  0  0  0  0  0  0
   13.7560    0.4435   22.8371 C   0  0  0  0  0  0  0  0  0  0  0  0
   12.9306    1.1045   23.7279 C   0  0  0  0  0  0  0  0  0  0  0  0
   11.5734    0.7976   23.7892 C   0  0  0  0  0  0  0  0  0  0  0  0
   10.7619    1.4933   24.6418 N   0  0  0  0  0  0  0  0  0  0  0  0
    9.3386    1.6001   24.3834 C   0  0  1  0  0  0  0  0  0  0  0  0
    8.7668    0.2355   24.0666 C   0  0  2  0  0  0  0  0  0  0  0  0
    9.3231   -2.0013   22.9984 C   0  0  1  0  0  0  0  0  0  0  0  0
    9.8459   -2.6135   24.2824 C   0  0  1  0  0  0  0  0  0  0  0  0
   10.0822   -3.9855   24.3425 O   0  0  0  0  0  0  0  0  0  0  0  0
   10.4505   -4.3849   25.6521 C   0  0  1  0  0  0  0  0  0  0  0  0
    7.7797   -0.4122   21.1841 N   0  0  0  0  0  0  0  0  0  0  0  0
    7.0495    0.0025   20.0525 C   0  0  0  0  0  0  0  0  0  0  0  0
    5.8576    0.7629   20.2516 C   0  0  0  0  0  0  0  0  0  0  0  0
    5.3371    1.0912   21.5276 C   0  0  0  0  0  0  0  0  0  0  0  0
    4.2292    1.8803   21.6536 C   0  0  0  0  0  0  0  0  0  0  0  0
    3.5828    2.3723   20.5334 C   0  0  0  0  0  0  0  0  0  0  0  0
    4.0352    2.0730   19.2823 C   0  0  0  0  0  0  0  0  0  0  0  0
    5.1851    1.2646   19.1054 C   0  0  0  0  0  0  0  0  0  0  0  0
    5.7276    0.9555   17.8333 C   0  0  0  0  0  0  0  0  0  0  0  0
    6.8273    0.2399   17.6479 N   0  0  0  0  0  0  0  0  0  0  0  0
    7.4607   -0.2133   18.7378 C   0  0  0  0  0  0  0  0  0  0  0  0
   11.5074   -1.6847   21.4714 H   0  0  0  0  0  0  0  0  0  0  0  0
   14.8022    0.7023   22.7668 H   0  0  0  0  0  0  0  0  0  0  0  0
   13.3402    1.8624   24.3792 H   0  0  0  0  0  0  0  0  0  0  0  0
   11.1800    2.2903   25.0776 H   0  0  0  0  0  0  0  0  0  0  0  0
    8.8364    2.0080   25.2730 H   0  0  0  0  0  0  0  0  0  0  0  0
    9.1729    2.2720   23.5283 H   0  0  0  0  0  0  0  0  0  0  0  0
    8.8236   -0.3900   24.9697 H   0  0  0  0  0  0  0  0  0  0  0  0
    7.7148    0.3536   23.7678 H   0  0  0  0  0  0  0  0  0  0  0  0
    8.2457   -2.2107   22.9247 H   0  0  0  0  0  0  0  0  0  0  0  0
    9.8461   -2.4677   22.1506 H   0  0  0  0  0  0  0  0  0  0  0  0
   10.7994   -2.1144   24.5096 H   0  0  0  0  0  0  0  0  0  0  0  0
    9.1134   -2.3803   25.0693 H   0  0  0  0  0  0  0  0  0  0  0  0
   10.6302   -5.4699   25.6683 H   0  0  0  0  0  0  0  0  0  0  0  0
   11.3678   -3.8570   25.9520 H   0  0  0  0  0  0  0  0  0  0  0  0
    9.6394   -4.1372   26.3526 H   0  0  0  0  0  0  0  0  0  0  0  0
    7.4159   -1.1907   21.6953 H   0  0  0  0  0  0  0  0  0  0  0  0
    5.8236    0.7118   22.4141 H   0  0  0  0  0  0  0  0  0  0  0  0
    3.8543    2.1226   22.6369 H   0  0  0  0  0  0  0  0  0  0  0  0
    2.7113    2.9994   20.6511 H   0  0  0  0  0  0  0  0  0  0  0  0
    3.5122    2.4558   18.4184 H   0  0  0  0  0  0  0  0  0  0  0  0
    5.2122    1.3265   16.9598 H   0  0  0  0  0  0  0  0  0  0  0  0
    8.3605   -0.7911   18.5862 H   0  0  0  0  0  0  0  0  0  0  0  0
  1  2  2  0
  3  2  1  6
  2 18  1  0
  3  4  1  0
  3 13  1  0
  3 14  1  0
  4  5  1  0
  4 10  2  0
  5  6  2  0
  5 29  1  0
  6  7  1  0
  6  8  1  0
  8  9  2  0
  8 30  1  0
  9 10  1  0
  9 31  1  0
 10 11  1  0
 11 12  1  0
 11 32  1  0
 12 13  1  0
 12 33  1  1
 12 34  1  0
 13 35  1  1
 13 36  1  0
 14 15  1  0
 14 37  1  6
 14 38  1  0
 15 16  1  0
 15 39  1  1
 15 40  1  0
 16 17  1  0
 17 41  1  6
 17 42  1  0
 17 43  1  0
 18 19  1  0
 18 44  1  0
 19 20  2  0
 19 28  1  0
 20 21  1  0
 20 25  1  0
 21 22  2  0
 21 45  1  0
 22 23  1  0
 22 46  1  0
 23 24  2  0
 23 47  1  0
 24 25  1  0
 24 48  1  0
 25 26  2  0
 26 27  1  0
 26 49  1  0
 27 28  2  0
 28 50  1  0
M  END
$$$$
