LIG(A-306)
     RDKit          3D

 52 56  0  0  1  0  0  0  0  0999 V2000
    6.1347    1.4813   24.5030 O   0  0  0  0  0  0  0  0  0  0  0  0
    7.3806    1.9315   25.0320 S   0  0  2  0  0  0  0  0  0  0  0  0
    7.5376    2.0555   26.4470 O   0  0  0  0  0  0  0  0  0  0  0  0
    7.7764    3.3815   24.4089 N   0  0  0  0  0  0  0  0  0  0  0  0
    7.5303    3.7824   23.0129 C   0  0  2  0  0  0  0  0  0  0  0  0
    7.3811    5.2254   22.7099 C   0  0  1  0  0  0  0  0  0  0  0  0
    6.1993    4.3263   22.6500 C   0  0  1  0  0  0  0  0  0  0  0  0
    8.5257    0.8816   24.6020 N   0  0  0  0  0  0  0  0  0  0  0  0
    9.9277    1.2308   24.8630 C   0  0  1  0  0  0  0  0  0  0  0  0
    8.2739   -0.4934   24.1320 C   0  0  1  0  0  0  0  0  0  0  0  0
    9.0659   -0.8544   22.8760 C   0  0  2  0  0  0  0  0  0  0  0  0
   10.5299   -0.4972   23.0540 C   0  0  0  0  0  0  0  0  0  0  0  0
   10.8988    0.5289   23.9390 C   0  0  0  0  0  0  0  0  0  0  0  0
   12.2377    0.9121   24.0149 C   0  0  0  0  0  0  0  0  0  0  0  0
   13.2038    0.2922   23.2479 C   0  0  0  0  0  0  0  0  0  0  0  0
   11.5170   -1.1420   22.3030 C   0  0  0  0  0  0  0  0  0  0  0  0
   12.8339   -0.7339   22.4130 C   0  0  0  0  0  0  0  0  0  0  0  0
   14.0570   -1.5457   21.4760 Cl  0  0  0  0  0  0  0  0  0  0  0  0
    8.5308   -0.1015   21.6560 C   0  0  0  0  0  0  0  0  0  0  0  0
    9.1027    0.8816   21.1990 O   0  0  0  0  0  0  0  0  0  0  0  0
    7.3739   -0.5916   21.1430 N   0  0  0  0  0  0  0  0  0  0  0  0
    6.6488   -0.0997   20.0300 C   0  0  0  0  0  0  0  0  0  0  0  0
    5.4707    0.6801   20.2640 C   0  0  0  0  0  0  0  0  0  0  0  0
    4.9197    0.9111   21.5500 C   0  0  0  0  0  0  0  0  0  0  0  0
    3.8156    1.7019   21.7100 C   0  0  0  0  0  0  0  0  0  0  0  0
    3.2095    2.3028   20.6120 C   0  0  0  0  0  0  0  0  0  0  0  0
    3.6945    2.1009   19.3530 C   0  0  0  0  0  0  0  0  0  0  0  0
    4.8296    1.2790   19.1400 C   0  0  0  0  0  0  0  0  0  0  0  0
    5.3786    1.0331   17.8560 C   0  0  0  0  0  0  0  0  0  0  0  0
    6.4597    0.2932   17.6380 N   0  0  0  0  0  0  0  0  0  0  0  0
    7.0688   -0.2447   18.7060 C   0  0  0  0  0  0  0  0  0  0  0  0
    7.7087    4.1345   25.0635 H   0  0  0  0  0  0  0  0  0  0  0  0
    8.0293    3.1781   22.2410 H   0  0  0  0  0  0  0  0  0  0  0  0
    7.4666    5.9686   23.5164 H   0  0  0  0  0  0  0  0  0  0  0  0
    7.8049    5.6397   21.7831 H   0  0  0  0  0  0  0  0  0  0  0  0
    5.7481    4.0745   21.6789 H   0  0  0  0  0  0  0  0  0  0  0  0
    5.4099    4.4035   23.4121 H   0  0  0  0  0  0  0  0  0  0  0  0
   10.0469    2.3169   24.7357 H   0  0  0  0  0  0  0  0  0  0  0  0
   10.1696    0.9543   25.8998 H   0  0  0  0  0  0  0  0  0  0  0  0
    8.5517   -1.1934   24.9338 H   0  0  0  0  0  0  0  0  0  0  0  0
    7.2013   -0.5964   23.9107 H   0  0  0  0  0  0  0  0  0  0  0  0
    8.9780   -1.9359   22.6956 H   0  0  0  0  0  0  0  0  0  0  0  0
   12.5239    1.7083   24.6861 H   0  0  0  0  0  0  0  0  0  0  0  0
   14.2348    0.6091   23.3035 H   0  0  0  0  0  0  0  0  0  0  0  0
   11.2530   -1.9537   21.6412 H   0  0  0  0  0  0  0  0  0  0  0  0
    6.9893   -1.3917   21.6036 H   0  0  0  0  0  0  0  0  0  0  0  0
    5.3785    0.4559   22.4153 H   0  0  0  0  0  0  0  0  0  0  0  0
    3.4105    1.8614   22.6984 H   0  0  0  0  0  0  0  0  0  0  0  0
    2.3464    2.9355   20.7574 H   0  0  0  0  0  0  0  0  0  0  0  0
    3.2091    2.5715   18.5108 H   0  0  0  0  0  0  0  0  0  0  0  0
    4.8869    1.4750   17.0020 H   0  0  0  0  0  0  0  0  0  0  0  0
    7.9542   -0.8368   18.5274 H   0  0  0  0  0  0  0  0  0  0  0  0
  1  2  2  0
  2  3  2  0
  2  4  1  6
  2  8  1  0
  4  5  1  0
  4 32  1  0
  5  6  1  0
  5  7  1  0
  5 33  1  6
  6  7  1  0
  6 34  1  1
  6 35  1  0
  7 36  1  6
  7 37  1  0
  8  9  1  0
  8 10  1  0
  9 13  1  0
  9 38  1  1
  9 39  1  0
 10 11  1  0
 10 40  1  1
 10 41  1  0
 11 12  1  0
 11 19  1  0
 11 42  1  6
 12 13  2  0
 12 16  1  0
 13 14  1  0
 14 15  2  0
 14 43  1  0
 15 17  1  0
 15 44  1  0
 16 17  2  0
 16 45  1  0
 17 18  1  0
 19 20  2  0
 19 21  1  0
 21 22  1  0
 21 46  1  0
 22 23  2  0
 22 31  1  0
 23 24  1  0
 23 28  1  0
 24 25  2  0
 24 47  1  0
 25 26  1  0
 25 48  1  0
 26 27  2  0
 26 49  1  0
 27 28  1  0
 27 50  1  0
 28 29  2  0
 29 30  1  0
 29 51  1  0
 30 31  2  0
 31 52  1  0
M  END
$$$$
