LIG(A-306)
     RDKit          3D

 41 42  0  0  0  0  0  0  0  0999 V2000
   13.9995   -1.4675   21.4669 Cl  0  0  0  0  0  0  0  0  0  0  0  0
   12.6759   -0.8628   22.4285 C   0  0  0  0  0  0  0  0  0  0  0  0
   12.9304    0.0540   23.4252 C   0  0  0  0  0  0  0  0  0  0  0  0
   11.8654    0.5345   24.1726 C   0  0  0  0  0  0  0  0  0  0  0  0
   10.5727    0.1137   23.8964 C   0  0  0  0  0  0  0  0  0  0  0  0
   11.3949   -1.2982   22.1469 C   0  0  0  0  0  0  0  0  0  0  0  0
   10.3218   -0.7856   22.8714 C   0  0  0  0  0  0  0  0  0  0  0  0
    8.9043   -1.1477   22.4833 C   0  0  1  0  0  0  0  0  0  0  0  0
    8.3394   -0.2286   21.4195 C   0  0  0  0  0  0  0  0  0  0  0  0
    8.9759    0.7318   20.9857 O   0  0  0  0  0  0  0  0  0  0  0  0
    7.1012   -0.5547   20.9919 N   0  0  0  0  0  0  0  0  0  0  0  0
    6.4870   -0.0004   19.8441 C   0  0  0  0  0  0  0  0  0  0  0  0
    6.9476   -0.1535   18.5380 C   0  0  0  0  0  0  0  0  0  0  0  0
    6.3790    0.4251   17.4745 N   0  0  0  0  0  0  0  0  0  0  0  0
    5.2971    1.1825   17.6855 C   0  0  0  0  0  0  0  0  0  0  0  0
    4.7440    1.4150   18.9299 C   0  0  0  0  0  0  0  0  0  0  0  0
    5.3520    0.8169   20.0217 C   0  0  0  0  0  0  0  0  0  0  0  0
    4.8090    0.8239   21.3178 O   0  0  0  0  0  0  0  0  0  0  0  0
    4.8113    2.0509   22.1551 C   0  0  2  0  0  0  0  0  0  0  0  0
    6.1303    2.7831   22.0309 C   0  0  1  0  0  0  0  0  0  0  0  0
    4.6100    1.5371   23.5616 C   0  0  1  0  0  0  0  0  0  0  0  0
    3.6540    2.9321   21.7343 C   0  0  1  0  0  0  0  0  0  0  0  0
   13.9378    0.3912   23.6202 H   0  0  0  0  0  0  0  0  0  0  0  0
   12.0431    1.2385   24.9721 H   0  0  0  0  0  0  0  0  0  0  0  0
    9.7513    0.4914   24.4873 H   0  0  0  0  0  0  0  0  0  0  0  0
   11.2273   -2.0305   21.3709 H   0  0  0  0  0  0  0  0  0  0  0  0
    8.8964   -2.1784   22.0990 H   0  0  0  0  0  0  0  0  0  0  0  0
    8.2670   -1.0851   23.3778 H   0  0  0  0  0  0  0  0  0  0  0  0
    6.5858   -1.2302   21.5193 H   0  0  0  0  0  0  0  0  0  0  0  0
    7.8150   -0.7759   18.3747 H   0  0  0  0  0  0  0  0  0  0  0  0
    4.8261    1.6415   16.8289 H   0  0  0  0  0  0  0  0  0  0  0  0
    3.8705    2.0394   19.0472 H   0  0  0  0  0  0  0  0  0  0  0  0
    6.1092    3.6865   22.6580 H   0  0  0  0  0  0  0  0  0  0  0  0
    6.9472    2.1254   22.3628 H   0  0  0  0  0  0  0  0  0  0  0  0
    6.2932    3.0693   20.9813 H   0  0  0  0  0  0  0  0  0  0  0  0
    4.5975    2.3839   24.2635 H   0  0  0  0  0  0  0  0  0  0  0  0
    3.6535    0.9973   23.6213 H   0  0  0  0  0  0  0  0  0  0  0  0
    5.4326    0.8556   23.8242 H   0  0  0  0  0  0  0  0  0  0  0  0
    3.6455    3.8449   22.3481 H   0  0  0  0  0  0  0  0  0  0  0  0
    3.7669    3.2041   20.6744 H   0  0  0  0  0  0  0  0  0  0  0  0
    2.7087    2.3873   21.8743 H   0  0  0  0  0  0  0  0  0  0  0  0
  1  2  1  0
  2  3  2  0
  2  6  1  0
  3  4  1  0
  3 23  1  0
  4  5  2  0
  4 24  1  0
  5  7  1  0
  5 25  1  0
  6  7  2  0
  6 26  1  0
  7  8  1  0
  8  9  1  0
  8 27  1  6
  8 28  1  0
  9 10  2  0
  9 11  1  0
 11 12  1  0
 11 29  1  0
 12 13  2  0
 12 17  1  0
 13 14  1  0
 13 30  1  0
 14 15  2  0
 15 16  1  0
 15 31  1  0
 16 17  2  0
 16 32  1  0
 17 18  1  0
 19 18  1  6
 19 20  1  0
 19 21  1  0
 19 22  1  0
 20 33  1  1
 20 34  1  0
 20 35  1  0
 21 36  1  1
 21 37  1  0
 21 38  1  0
 22 39  1  1
 22 40  1  0
 22 41  1  0
M  END
$$$$
