LIG(A-305)
     RDKit          3D

 39 41  0  0  1  0  0  0  0  0999 V2000
    9.2432   -0.6527   21.9983 N   0  0  0  0  0  0  0  0  0  0  0  0
   12.4447    4.2130   21.7227 N   0  0  0  0  0  0  0  0  0  0  0  0
    6.3440    0.6523   17.4224 N   0  0  0  0  0  0  0  0  0  0  0  0
   12.7862   -1.0270   22.9950 C   0  0  0  0  0  0  0  0  0  0  0  0
   12.1775    1.2961   23.1199 C   0  0  0  0  0  0  0  0  0  0  0  0
   12.6776    2.5340   23.4628 O   0  0  0  0  0  0  0  0  0  0  0  0
    5.2911    1.4095   17.7444 C   0  0  0  0  0  0  0  0  0  0  0  0
   11.4952   -1.3129   22.5711 C   0  0  0  0  0  0  0  0  0  0  0  0
    6.3531   -0.0685   19.7054 C   0  0  0  0  0  0  0  0  0  0  0  0
    7.1221   -0.6725   20.8594 C   0  0  1  0  0  0  0  0  0  0  0  0
    8.3922    0.0674   21.2353 C   0  0  0  0  0  0  0  0  0  0  0  0
   10.8894    1.0112   22.7040 C   0  0  0  0  0  0  0  0  0  0  0  0
   12.8529    4.8580   23.6536 C   0  0  1  0  0  0  0  0  0  0  0  0
    6.8540   -0.0837   18.4164 C   0  0  0  0  0  0  0  0  0  0  0  0
   12.0117    3.7311   23.0348 C   0  0  1  0  0  0  0  0  0  0  0  0
   13.0918    5.2879   22.2146 C   0  0  0  0  0  0  0  0  0  0  0  0
   13.8021   -2.1311   23.1690 C   0  0  1  0  0  0  0  0  0  0  0  0
    4.7262    1.5236   18.9515 N   0  0  0  0  0  0  0  0  0  0  0  0
    8.6073    1.2193   20.8712 O   0  0  0  0  0  0  0  0  0  0  0  0
   13.6469    6.2368   21.6615 O   0  0  0  0  0  0  0  0  0  0  0  0
    5.2792    0.7786   19.9155 C   0  0  0  0  0  0  0  0  0  0  0  0
   10.5453   -0.3068   22.4251 C   0  0  0  0  0  0  0  0  0  0  0  0
   13.1224    0.2930   23.2659 C   0  0  0  0  0  0  0  0  0  0  0  0
    8.9087   -1.5455   22.2998 H   0  0  0  0  0  0  0  0  0  0  0  0
   12.3090    3.8682   20.7938 H   0  0  0  0  0  0  0  0  0  0  0  0
    4.8504    1.9896   16.9471 H   0  0  0  0  0  0  0  0  0  0  0  0
   11.2234   -2.3347   22.3508 H   0  0  0  0  0  0  0  0  0  0  0  0
    6.4622   -0.6881   21.7394 H   0  0  0  0  0  0  0  0  0  0  0  0
    7.3944   -1.7029   20.5870 H   0  0  0  0  0  0  0  0  0  0  0  0
   10.1611    1.8015   22.5974 H   0  0  0  0  0  0  0  0  0  0  0  0
   12.2925    5.5763   24.2701 H   0  0  0  0  0  0  0  0  0  0  0  0
   13.7494    4.5280   24.1989 H   0  0  0  0  0  0  0  0  0  0  0  0
    7.6988   -0.7213   18.2016 H   0  0  0  0  0  0  0  0  0  0  0  0
   10.9333    3.7955   23.2413 H   0  0  0  0  0  0  0  0  0  0  0  0
   13.9531   -2.6457   22.2086 H   0  0  0  0  0  0  0  0  0  0  0  0
   14.7560   -1.7013   23.5085 H   0  0  0  0  0  0  0  0  0  0  0  0
   13.4372   -2.8504   23.9169 H   0  0  0  0  0  0  0  0  0  0  0  0
    4.8653    0.8418   20.9110 H   0  0  0  0  0  0  0  0  0  0  0  0
   14.1226    0.5383   23.5911 H   0  0  0  0  0  0  0  0  0  0  0  0
  1 11  1  0
  1 22  1  0
  1 24  1  0
  2 15  1  0
  2 16  1  0
  2 25  1  0
  3  7  2  0
  3 14  1  0
  4  8  2  0
  4 17  1  0
  4 23  1  0
  5  6  1  0
  5 12  1  0
  5 23  2  0
  6 15  1  0
  7 18  1  0
  7 26  1  0
  8 22  1  0
  8 27  1  0
  9 10  1  0
  9 14  2  0
  9 21  1  0
 10 11  1  0
 10 28  1  1
 10 29  1  0
 11 19  2  0
 12 22  2  0
 12 30  1  0
 13 15  1  0
 13 16  1  0
 13 31  1  1
 13 32  1  0
 14 33  1  0
 15 34  1  6
 16 20  2  0
 17 35  1  6
 17 36  1  0
 17 37  1  0
 18 21  2  0
 21 38  1  0
 23 39  1  0
M  END
$$$$
