LIG(A-305)
     RDKit          3D

 38 40  0  0  0  0  0  0  0  0999 V2000
   13.8723   -1.3421   23.5989 C   0  0  1  0  0  0  0  0  0  0  0  0
    5.8999    0.7966   18.7624 C   0  0  0  0  0  0  0  0  0  0  0  0
    4.1070    1.8696   19.6254 C   0  0  0  0  0  0  0  0  0  0  0  0
    4.4741    1.5496   20.9294 C   0  0  0  0  0  0  0  0  0  0  0  0
    5.6221    0.8177   21.1484 C   0  0  0  0  0  0  0  0  0  0  0  0
    6.3690    0.4176   20.0354 C   0  0  0  0  0  0  0  0  0  0  0  0
   11.6073   -1.9002   22.9901 C   0  0  1  0  0  0  0  0  0  0  0  0
   10.1533   -1.5142   23.1302 C   0  0  1  0  0  0  0  0  0  0  0  0
   10.7993    0.8048   23.3610 C   0  0  1  0  0  0  0  0  0  0  0  0
   12.2493    0.4028   23.2390 C   0  0  1  0  0  0  0  0  0  0  0  0
    9.2051    0.1867   21.5792 C   0  0  0  0  0  0  0  0  0  0  0  0
    8.4471   -0.9243   20.8683 C   0  0  1  0  0  0  0  0  0  0  0  0
    7.5710   -0.3304   19.8173 C   0  0  0  0  0  0  0  0  0  0  0  0
    7.7779   -0.3564   18.4703 C   0  0  0  0  0  0  0  0  0  0  0  0
   12.4633   -0.9641   23.7210 N   0  0  2  0  0  0  0  0  0  0  0  0
    9.9692   -0.1512   22.6341 N   0  0  0  0  0  0  0  0  0  0  0  0
    6.7749    0.3225   17.8313 N   0  0  0  0  0  0  0  0  0  0  0  0
    4.7949    1.5185   18.5304 N   0  0  0  0  0  0  0  0  0  0  0  0
    9.1301    1.3457   21.1761 O   0  0  0  0  0  0  0  0  0  0  0  0
   14.0098   -2.3700   23.9658 H   0  0  0  0  0  0  0  0  0  0  0  0
   14.1767   -1.2859   22.5434 H   0  0  0  0  0  0  0  0  0  0  0  0
   14.4893   -0.6543   24.1957 H   0  0  0  0  0  0  0  0  0  0  0  0
    3.2020    2.4424   19.4862 H   0  0  0  0  0  0  0  0  0  0  0  0
    3.8657    1.8716   21.7617 H   0  0  0  0  0  0  0  0  0  0  0  0
    5.9353    0.5608   22.1496 H   0  0  0  0  0  0  0  0  0  0  0  0
   11.7526   -2.9131   23.3936 H   0  0  0  0  0  0  0  0  0  0  0  0
   11.8836   -1.8865   21.9255 H   0  0  0  0  0  0  0  0  0  0  0  0
    9.5305   -2.2064   22.5445 H   0  0  0  0  0  0  0  0  0  0  0  0
    9.8596   -1.5633   24.1891 H   0  0  0  0  0  0  0  0  0  0  0  0
   10.5082    0.8117   24.4219 H   0  0  0  0  0  0  0  0  0  0  0  0
   10.6598    1.8098   22.9360 H   0  0  0  0  0  0  0  0  0  0  0  0
   12.5501    0.4618   22.1825 H   0  0  0  0  0  0  0  0  0  0  0  0
   12.8643    1.0936   23.8345 H   0  0  0  0  0  0  0  0  0  0  0  0
    9.1629   -1.6169   20.4015 H   0  0  0  0  0  0  0  0  0  0  0  0
    7.8291   -1.4710   21.5957 H   0  0  0  0  0  0  0  0  0  0  0  0
    8.6094   -0.8406   17.9798 H   0  0  0  0  0  0  0  0  0  0  0  0
   12.2118   -0.9985   24.6882 H   0  0  0  0  0  0  0  0  0  0  0  0
    6.6989    0.4499   16.8467 H   0  0  0  0  0  0  0  0  0  0  0  0
  1 15  1  0
  1 20  1  1
  1 21  1  0
  1 22  1  0
  2  6  1  0
  2 17  1  0
  2 18  2  0
  3  4  2  0
  3 18  1  0
  3 23  1  0
  4  5  1  0
  4 24  1  0
  5  6  2  0
  5 25  1  0
  6 13  1  0
  7  8  1  0
  7 15  1  0
  7 26  1  1
  7 27  1  0
  8 16  1  0
  8 28  1  6
  8 29  1  0
  9 10  1  0
  9 16  1  0
  9 30  1  1
  9 31  1  0
 10 15  1  0
 10 32  1  6
 10 33  1  0
 11 12  1  0
 11 16  1  0
 11 19  2  0
 12 13  1  0
 12 34  1  6
 12 35  1  0
 13 14  2  0
 14 17  1  0
 14 36  1  0
 15 37  1  1
 17 38  1  0
M  CHG  1  15   1
M  END
$$$$
