LIG(A-306)
     RDKit          3D

 67 70  0  0  1  0  0  0  0  0999 V2000
   -5.8091   -2.3761  -21.2862 O   0  0  0  0  0  0  0  0  0  0  0  0
   -6.9607   -2.6046  -21.6161 C   0  0  0  0  0  0  0  0  0  0  0  0
   -7.2791   -4.0254  -21.9724 C   0  0  0  0  0  0  0  0  0  0  0  0
   -8.3473   -4.4416  -22.7145 O   0  0  0  0  0  0  0  0  0  0  0  0
   -8.1933   -5.8049  -22.8731 C   0  0  0  0  0  0  0  0  0  0  0  0
   -7.0948   -6.2267  -22.2671 C   0  0  0  0  0  0  0  0  0  0  0  0
   -6.4916   -5.0841  -21.6741 C   0  0  0  0  0  0  0  0  0  0  0  0
   -7.9003   -1.6341  -21.7353 N   0  0  0  0  0  0  0  0  0  0  0  0
   -9.2061   -1.8458  -22.3009 C   0  0  0  0  0  0  0  0  0  0  0  0
   -9.3966   -1.7563  -23.6781 C   0  0  0  0  0  0  0  0  0  0  0  0
  -10.6668   -1.8611  -24.2130 C   0  0  0  0  0  0  0  0  0  0  0  0
  -10.3095   -2.0633  -21.4784 C   0  0  0  0  0  0  0  0  0  0  0  0
  -11.5777   -2.1775  -22.0271 C   0  0  0  0  0  0  0  0  0  0  0  0
  -11.7762   -2.0872  -23.4042 C   0  0  0  0  0  0  0  0  0  0  0  0
  -13.1573   -2.2720  -24.0510 C   0  0  2  0  0  0  0  0  0  0  0  0
  -13.1314   -3.4933  -24.9780 C   0  0  1  0  0  0  0  0  0  0  0  0
  -13.5103   -1.0355  -24.8911 C   0  0  1  0  0  0  0  0  0  0  0  0
  -14.2850   -2.4813  -23.0222 C   0  0  1  0  0  0  0  0  0  0  0  0
   -7.4870   -0.2338  -21.4713 C   0  0  2  0  0  0  0  0  0  0  0  0
   -6.8137   -0.0447  -20.1199 C   0  0  0  0  0  0  0  0  0  0  0  0
   -7.3994   -0.4857  -18.9385 C   0  0  0  0  0  0  0  0  0  0  0  0
   -6.9813   -0.1349  -17.7144 N   0  0  0  0  0  0  0  0  0  0  0  0
   -5.9163    0.6705  -17.6371 C   0  0  0  0  0  0  0  0  0  0  0  0
   -5.2420    1.1428  -18.7469 C   0  0  0  0  0  0  0  0  0  0  0  0
   -5.7000    0.7702  -19.9988 C   0  0  0  0  0  0  0  0  0  0  0  0
   -8.6131    0.7943  -21.6774 C   0  0  0  0  0  0  0  0  0  0  0  0
   -9.5033    0.9264  -20.8476 O   0  0  0  0  0  0  0  0  0  0  0  0
   -8.5127    1.5332  -22.7810 N   0  0  0  0  0  0  0  0  0  0  0  0
   -9.5108    2.5376  -23.1280 C   0  0  1  0  0  0  0  0  0  0  0  0
  -10.8571    1.8987  -23.4732 C   0  0  1  0  0  0  0  0  0  0  0  0
  -11.9906    2.8959  -23.5384 C   0  0  0  0  0  0  0  0  0  0  0  0
  -12.7429    3.1764  -22.4027 C   0  0  0  0  0  0  0  0  0  0  0  0
  -13.7459    4.1120  -22.4828 C   0  0  0  0  0  0  0  0  0  0  0  0
  -14.4309    4.4164  -21.3509 F   0  0  0  0  0  0  0  0  0  0  0  0
  -14.0626    4.7787  -23.6347 C   0  0  0  0  0  0  0  0  0  0  0  0
  -13.3171    4.4950  -24.7683 C   0  0  0  0  0  0  0  0  0  0  0  0
  -12.2908    3.5623  -24.7207 C   0  0  0  0  0  0  0  0  0  0  0  0
   -8.8762   -6.4402  -23.4174 H   0  0  0  0  0  0  0  0  0  0  0  0
   -6.7279   -7.2418  -22.2302 H   0  0  0  0  0  0  0  0  0  0  0  0
   -5.5794   -5.0649  -21.0963 H   0  0  0  0  0  0  0  0  0  0  0  0
   -8.5489   -1.6045  -24.3300 H   0  0  0  0  0  0  0  0  0  0  0  0
  -10.8009   -1.7657  -25.2803 H   0  0  0  0  0  0  0  0  0  0  0  0
  -10.1765   -2.1434  -20.4096 H   0  0  0  0  0  0  0  0  0  0  0  0
  -12.4252   -2.3389  -21.3774 H   0  0  0  0  0  0  0  0  0  0  0  0
  -14.1209   -3.6244  -25.4404 H   0  0  0  0  0  0  0  0  0  0  0  0
  -12.3768   -3.3411  -25.7638 H   0  0  0  0  0  0  0  0  0  0  0  0
  -12.8775   -4.3908  -24.3948 H   0  0  0  0  0  0  0  0  0  0  0  0
  -14.4998   -1.1744  -25.3512 H   0  0  0  0  0  0  0  0  0  0  0  0
  -13.5284   -0.1459  -24.2444 H   0  0  0  0  0  0  0  0  0  0  0  0
  -12.7553   -0.9004  -25.6796 H   0  0  0  0  0  0  0  0  0  0  0  0
  -15.2430   -2.6066  -23.5479 H   0  0  0  0  0  0  0  0  0  0  0  0
  -14.0741   -3.3808  -22.4251 H   0  0  0  0  0  0  0  0  0  0  0  0
  -14.3427   -1.6059  -22.3586 H   0  0  0  0  0  0  0  0  0  0  0  0
   -6.7225    0.0086  -22.2241 H   0  0  0  0  0  0  0  0  0  0  0  0
   -8.2450   -1.1534  -19.0120 H   0  0  0  0  0  0  0  0  0  0  0  0
   -5.5661    0.9661  -16.6592 H   0  0  0  0  0  0  0  0  0  0  0  0
   -4.3806    1.7856  -18.6403 H   0  0  0  0  0  0  0  0  0  0  0  0
   -5.1873    1.1159  -20.8842 H   0  0  0  0  0  0  0  0  0  0  0  0
   -7.7306    1.3952  -23.3887 H   0  0  0  0  0  0  0  0  0  0  0  0
   -9.6467    3.2161  -22.2729 H   0  0  0  0  0  0  0  0  0  0  0  0
   -9.1540    3.1099  -23.9971 H   0  0  0  0  0  0  0  0  0  0  0  0
  -10.7690    1.4053  -24.4524 H   0  0  0  0  0  0  0  0  0  0  0  0
  -11.0953    1.1486  -22.7047 H   0  0  0  0  0  0  0  0  0  0  0  0
  -12.5418    2.6666  -21.4721 H   0  0  0  0  0  0  0  0  0  0  0  0
  -14.8653    5.5007  -23.6600 H   0  0  0  0  0  0  0  0  0  0  0  0
  -13.5366    5.0036  -25.6954 H   0  0  0  0  0  0  0  0  0  0  0  0
  -11.7190    3.3518  -25.6123 H   0  0  0  0  0  0  0  0  0  0  0  0
  1  2  2  0
  2  3  1  0
  2  8  1  0
  3  4  1  0
  3  7  2  0
  4  5  1  0
  5  6  2  0
  5 38  1  0
  6  7  1  0
  6 39  1  0
  7 40  1  0
  8  9  1  0
  8 19  1  0
  9 10  2  0
  9 12  1  0
 10 11  1  0
 10 41  1  0
 11 14  2  0
 11 42  1  0
 12 13  2  0
 12 43  1  0
 13 14  1  0
 13 44  1  0
 15 14  1  1
 15 16  1  0
 15 17  1  0
 15 18  1  0
 16 45  1  6
 16 46  1  0
 16 47  1  0
 17 48  1  6
 17 49  1  0
 17 50  1  0
 18 51  1  6
 18 52  1  0
 18 53  1  0
 19 20  1  0
 19 26  1  0
 19 54  1  6
 20 21  2  0
 20 25  1  0
 21 22  1  0
 21 55  1  0
 22 23  2  0
 23 24  1  0
 23 56  1  0
 24 25  2  0
 24 57  1  0
 25 58  1  0
 26 27  2  0
 26 28  1  0
 28 29  1  0
 28 59  1  0
 29 30  1  0
 29 60  1  1
 29 61  1  0
 30 31  1  0
 30 62  1  6
 30 63  1  0
 31 32  2  0
 31 37  1  0
 32 33  1  0
 32 64  1  0
 33 34  1  0
 33 35  2  0
 35 36  1  0
 35 65  1  0
 36 37  2  0
 36 66  1  0
 37 67  1  0
M  END
$$$$
