LIG(A-305)
     RDKit          3D

 30 31  0  0  0  0  0  0  0  0999 V2000
   13.8932   -1.8570   21.4560 Cl  0  0  0  0  0  0  0  0  0  0  0  0
   12.6942   -1.0220   22.4070 C   0  0  0  0  0  0  0  0  0  0  0  0
   13.1013   -0.1360   23.3860 C   0  0  0  0  0  0  0  0  0  0  0  0
   12.1403    0.4190   24.2190 C   0  0  0  0  0  0  0  0  0  0  0  0
   10.7973    0.1410   24.0160 C   0  0  0  0  0  0  0  0  0  0  0  0
   11.3592   -1.3160   22.2020 C   0  0  0  0  0  0  0  0  0  0  0  0
   10.3913   -0.7030   22.9900 C   0  0  0  0  0  0  0  0  0  0  0  0
    8.9272   -0.8940   22.6730 C   0  0  1  0  0  0  0  0  0  0  0  0
    8.4732   -0.0550   21.4941 C   0  0  0  0  0  0  0  0  0  0  0  0
    9.0712    0.9640   21.1330 O   0  0  0  0  0  0  0  0  0  0  0  0
    7.3312   -0.4850   20.9261 N   0  0  0  0  0  0  0  0  0  0  0  0
    6.6522    0.1310   19.8751 C   0  0  0  0  0  0  0  0  0  0  0  0
    5.4442    0.8310   20.1181 C   0  0  0  0  0  0  0  0  0  0  0  0
    4.8452    0.9710   21.4951 C   0  0  1  0  0  0  0  0  0  0  0  0
    7.2342    0.1300   18.6761 N   0  0  0  0  0  0  0  0  0  0  0  0
    6.6832    0.7920   17.6401 N   0  0  0  0  0  0  0  0  0  0  0  0
    5.5432    1.4570   17.8131 C   0  0  0  0  0  0  0  0  0  0  0  0
    4.8942    1.4940   19.0321 C   0  0  0  0  0  0  0  0  0  0  0  0
   14.1445    0.1190   23.5004 H   0  0  0  0  0  0  0  0  0  0  0  0
   12.4393    1.0693   25.0277 H   0  0  0  0  0  0  0  0  0  0  0  0
   10.0570    0.5865   24.6640 H   0  0  0  0  0  0  0  0  0  0  0  0
   11.0695   -2.0179   21.4340 H   0  0  0  0  0  0  0  0  0  0  0  0
    8.7525   -1.9546   22.4392 H   0  0  0  0  0  0  0  0  0  0  0  0
    8.3355   -0.6109   23.5560 H   0  0  0  0  0  0  0  0  0  0  0  0
    6.9319   -1.3255   21.2923 H   0  0  0  0  0  0  0  0  0  0  0  0
    5.5569    1.4898   22.1541 H   0  0  0  0  0  0  0  0  0  0  0  0
    3.9134    1.5522   21.4321 H   0  0  0  0  0  0  0  0  0  0  0  0
    4.6280   -0.0270   21.9035 H   0  0  0  0  0  0  0  0  0  0  0  0
    5.1123    1.9839   16.9746 H   0  0  0  0  0  0  0  0  0  0  0  0
    3.9656    2.0352   19.1381 H   0  0  0  0  0  0  0  0  0  0  0  0
  1  2  1  0
  2  3  2  0
  2  6  1  0
  3  4  1  0
  3 19  1  0
  4  5  2  0
  4 20  1  0
  5  7  1  0
  5 21  1  0
  6  7  2  0
  6 22  1  0
  7  8  1  0
  8  9  1  0
  8 23  1  6
  8 24  1  0
  9 10  2  0
  9 11  1  0
 11 12  1  0
 11 25  1  0
 12 13  2  0
 12 15  1  0
 13 14  1  0
 13 18  1  0
 14 26  1  1
 14 27  1  0
 14 28  1  0
 15 16  2  0
 16 17  1  0
 17 18  2  0
 17 29  1  0
 18 30  1  0
M  END
$$$$
