LIG(B-307)
     RDKit          3D

 72 74  0  0  1  0  0  0  0  0999 V2000
   -6.2346    1.3250  -18.1352 C   0  0  0  0  0  0  0  0  0  0  0  0
   -7.5268   -3.2825  -19.6823 C   0  0  1  0  0  0  0  0  0  0  0  0
   -8.8251   -0.7534  -21.6876 C   0  0  0  0  0  0  0  0  0  0  0  0
   -9.8626    2.0802  -22.1152 C   0  0  0  0  0  0  0  0  0  0  0  0
  -11.8286    4.8072  -22.9382 C   0  0  0  0  0  0  0  0  0  0  0  0
   -5.2648    0.3814  -20.0782 C   0  0  1  0  0  0  0  0  0  0  0  0
   -4.6850    1.7619  -19.8243 C   0  0  1  0  0  0  0  0  0  0  0  0
  -10.7550    0.7765  -24.1099 C   0  0  1  0  0  0  0  0  0  0  0  0
   -6.5858    0.4263  -19.3018 C   0  0  1  0  0  0  0  0  0  0  0  0
  -10.2354   -0.3339  -21.9780 C   0  0  2  0  0  0  0  0  0  0  0  0
  -11.2882   -0.6009  -24.1429 C   0  0  1  0  0  0  0  0  0  0  0  0
  -10.9755   -1.2895  -22.8600 C   0  0  2  0  0  0  0  0  0  0  0  0
  -12.4298   -1.1094  -23.2823 C   0  0  1  0  0  0  0  0  0  0  0  0
  -13.2536   -0.0941  -22.5694 C   0  0  1  0  0  0  0  0  0  0  0  0
  -13.1695   -2.2988  -23.7754 C   0  0  1  0  0  0  0  0  0  0  0  0
   -8.4830    4.9491  -24.1830 C   0  0  1  0  0  0  0  0  0  0  0  0
   -7.5030    2.7965  -23.6050 C   0  0  1  0  0  0  0  0  0  0  0  0
   -7.8947    4.5098  -21.8480 C   0  0  1  0  0  0  0  0  0  0  0  0
   -7.0026   -0.9553  -18.8291 C   0  0  1  0  0  0  0  0  0  0  0  0
   -7.4071   -1.8205  -20.0118 C   0  0  2  0  0  0  0  0  0  0  0  0
   -9.8402    3.3243  -22.9706 C   0  0  2  0  0  0  0  0  0  0  0  0
  -12.7233    5.5700  -21.9929 C   0  0  2  0  0  0  0  0  0  0  0  0
   -8.4338    3.8812  -23.1173 C   0  0  1  0  0  0  0  0  0  0  0  0
   -6.4572   -4.0115  -19.5733 N   0  0  1  0  0  0  0  0  0  0  0  0
   -5.0683    1.9991  -18.4561 N   0  0  0  0  0  0  0  0  0  0  0  0
  -10.1518    0.9051  -22.7666 N   0  0  0  0  0  0  0  0  0  0  0  0
   -8.7069   -1.4058  -20.4875 N   0  0  0  0  0  0  0  0  0  0  0  0
  -10.7534    4.2208  -22.2864 N   0  0  0  0  0  0  0  0  0  0  0  0
   -6.8863    1.4427  -17.1132 O   0  0  0  0  0  0  0  0  0  0  0  0
   -7.9006   -0.5285  -22.4552 O   0  0  0  0  0  0  0  0  0  0  0  0
   -9.6152    2.1076  -20.9171 O   0  0  0  0  0  0  0  0  0  0  0  0
  -12.0449    4.7670  -24.1453 O   0  0  0  0  0  0  0  0  0  0  0  0
  -12.7356    5.0392  -20.7494 F   0  0  0  0  0  0  0  0  0  0  0  0
  -14.0263    5.5554  -22.3610 F   0  0  0  0  0  0  0  0  0  0  0  0
  -12.3784    6.8810  -21.8708 F   0  0  0  0  0  0  0  0  0  0  0  0
   -8.0565   -3.3494  -18.7206 H   0  0  0  0  0  0  0  0  0  0  0  0
   -8.1423   -3.7372  -20.4724 H   0  0  0  0  0  0  0  0  0  0  0  0
   -5.4403    0.2155  -21.1514 H   0  0  0  0  0  0  0  0  0  0  0  0
   -4.6020   -0.4055  -19.6892 H   0  0  0  0  0  0  0  0  0  0  0  0
   -3.5910    1.7635  -19.9392 H   0  0  0  0  0  0  0  0  0  0  0  0
   -5.1255    2.5110  -20.4987 H   0  0  0  0  0  0  0  0  0  0  0  0
   -9.9956    0.9188  -24.8928 H   0  0  0  0  0  0  0  0  0  0  0  0
  -11.5633    1.5101  -24.2454 H   0  0  0  0  0  0  0  0  0  0  0  0
   -7.3769    0.8799  -19.9169 H   0  0  0  0  0  0  0  0  0  0  0  0
  -10.7877   -0.1665  -21.0416 H   0  0  0  0  0  0  0  0  0  0  0  0
  -11.0932   -1.1764  -25.0598 H   0  0  0  0  0  0  0  0  0  0  0  0
  -10.5732   -2.3109  -22.9297 H   0  0  0  0  0  0  0  0  0  0  0  0
  -14.0384   -0.6005  -21.9882 H   0  0  0  0  0  0  0  0  0  0  0  0
  -12.6122    0.4872  -21.8906 H   0  0  0  0  0  0  0  0  0  0  0  0
  -13.7185    0.5812  -23.3027 H   0  0  0  0  0  0  0  0  0  0  0  0
  -13.9646   -2.5588  -23.0611 H   0  0  0  0  0  0  0  0  0  0  0  0
  -13.6162   -2.0726  -24.7548 H   0  0  0  0  0  0  0  0  0  0  0  0
  -12.4755   -3.1463  -23.8759 H   0  0  0  0  0  0  0  0  0  0  0  0
   -9.1543    5.7588  -23.8608 H   0  0  0  0  0  0  0  0  0  0  0  0
   -7.4726    5.3530  -24.3442 H   0  0  0  0  0  0  0  0  0  0  0  0
   -8.8578    4.5138  -25.1211 H   0  0  0  0  0  0  0  0  0  0  0  0
   -7.4424    1.9981  -22.8507 H   0  0  0  0  0  0  0  0  0  0  0  0
   -7.8868    2.3810  -24.5484 H   0  0  0  0  0  0  0  0  0  0  0  0
   -6.5016    3.2202  -23.7714 H   0  0  0  0  0  0  0  0  0  0  0  0
   -7.8485    3.7508  -21.0532 H   0  0  0  0  0  0  0  0  0  0  0  0
   -6.8858    4.9063  -22.0352 H   0  0  0  0  0  0  0  0  0  0  0  0
   -8.5582    5.3291  -21.5343 H   0  0  0  0  0  0  0  0  0  0  0  0
   -6.1591   -1.4288  -18.3053 H   0  0  0  0  0  0  0  0  0  0  0  0
   -7.8553   -0.8609  -18.1406 H   0  0  0  0  0  0  0  0  0  0  0  0
   -6.6621   -1.6951  -20.8114 H   0  0  0  0  0  0  0  0  0  0  0  0
  -10.2334    3.0809  -23.9687 H   0  0  0  0  0  0  0  0  0  0  0  0
   -6.7154   -4.9520  -19.3525 H   0  0  0  0  0  0  0  0  0  0  0  0
   -5.9553   -3.9980  -20.4381 H   0  0  0  0  0  0  0  0  0  0  0  0
   -5.8773   -3.6455  -18.8455 H   0  0  0  0  0  0  0  0  0  0  0  0
   -4.5575    2.5767  -17.8195 H   0  0  0  0  0  0  0  0  0  0  0  0
   -9.5221   -1.5952  -19.9402 H   0  0  0  0  0  0  0  0  0  0  0  0
  -10.6035    4.4215  -21.3183 H   0  0  0  0  0  0  0  0  0  0  0  0
  1  9  1  0
  1 25  1  0
  1 29  2  0
  2 20  1  0
  2 24  1  0
  2 36  1  1
  2 37  1  0
  3 10  1  0
  3 27  1  0
  3 30  2  0
  4 21  1  0
  4 26  1  0
  4 31  2  0
  5 22  1  0
  5 28  1  0
  5 32  2  0
  6  7  1  0
  6  9  1  0
  6 38  1  6
  6 39  1  0
  7 25  1  0
  7 40  1  1
  7 41  1  0
  8 11  1  0
  8 26  1  0
  8 42  1  6
  8 43  1  0
  9 19  1  0
  9 44  1  6
 10 12  1  0
 10 26  1  0
 10 45  1  1
 11 12  1  0
 13 11  1  6
 11 46  1  6
 12 13  1  0
 12 47  1  6
 13 14  1  0
 13 15  1  0
 14 48  1  1
 14 49  1  0
 14 50  1  0
 15 51  1  1
 15 52  1  0
 15 53  1  0
 16 23  1  0
 16 54  1  1
 16 55  1  0
 16 56  1  0
 17 23  1  0
 17 57  1  1
 17 58  1  0
 17 59  1  0
 18 23  1  0
 18 60  1  1
 18 61  1  0
 18 62  1  0
 19 20  1  0
 19 63  1  1
 19 64  1  0
 20 27  1  0
 20 65  1  6
 23 21  1  1
 21 28  1  0
 21 66  1  6
 22 33  1  1
 22 34  1  0
 22 35  1  0
 24 67  1  1
 24 68  1  0
 24 69  1  0
 25 70  1  0
 27 71  1  0
 28 72  1  0
M  CHG  1  24   1
M  END
$$$$
