LIG(A-305)
     RDKit          3D

 40 43  0  0  1  0  0  0  0  0999 V2000
    9.0836    0.6772   21.1752 O   0  0  0  0  0  0  0  0  0  0  0  0
    8.5514   -0.3958   21.4483 C   0  0  0  0  0  0  0  0  0  0  0  0
    9.0134   -1.2568   22.6252 C   0  0  2  0  0  0  0  0  0  0  0  0
    8.0726   -0.9857   23.8483 C   0  0  1  0  0  0  0  0  0  0  0  0
    8.7878   -0.4188   25.0672 C   0  0  1  0  0  0  0  0  0  0  0  0
    9.8309    0.5240   24.6762 N   0  0  0  0  0  0  0  0  0  0  0  0
   10.4675   -0.8840   22.8461 C   0  0  0  0  0  0  0  0  0  0  0  0
   10.7887    0.0809   23.8101 C   0  0  0  0  0  0  0  0  0  0  0  0
   12.0978    0.5538   23.9109 C   0  0  0  0  0  0  0  0  0  0  0  0
   13.0887    0.0476   23.0878 C   0  0  0  0  0  0  0  0  0  0  0  0
   11.4804   -1.4101   22.0480 C   0  0  0  0  0  0  0  0  0  0  0  0
   12.7714   -0.9493   22.1899 C   0  0  0  0  0  0  0  0  0  0  0  0
   14.0433   -1.7055   21.2667 Cl  0  0  0  0  0  0  0  0  0  0  0  0
    7.4873   -0.8876   20.7764 N   0  0  0  0  0  0  0  0  0  0  0  0
    6.7343   -0.2385   19.7824 C   0  0  0  0  0  0  0  0  0  0  0  0
    5.6114    0.5426   20.1906 C   0  0  0  0  0  0  0  0  0  0  0  0
    5.1466    0.6187   21.5286 C   0  0  0  0  0  0  0  0  0  0  0  0
    4.0587    1.3798   21.8517 C   0  0  0  0  0  0  0  0  0  0  0  0
    3.3787    2.0909   20.8758 C   0  0  0  0  0  0  0  0  0  0  0  0
    3.7896    2.0569   19.5757 C   0  0  0  0  0  0  0  0  0  0  0  0
    4.9165    1.2867   19.1966 C   0  0  0  0  0  0  0  0  0  0  0  0
    5.3953    1.2117   17.8666 C   0  0  0  0  0  0  0  0  0  0  0  0
    6.4402    0.4835   17.4885 N   0  0  0  0  0  0  0  0  0  0  0  0
    7.0712   -0.2245   18.4304 C   0  0  0  0  0  0  0  0  0  0  0  0
    8.9434   -2.3195   22.3500 H   0  0  0  0  0  0  0  0  0  0  0  0
    7.2988   -0.2686   23.5370 H   0  0  0  0  0  0  0  0  0  0  0  0
    7.5979   -1.9353   24.1365 H   0  0  0  0  0  0  0  0  0  0  0  0
    8.0557    0.0998   25.7038 H   0  0  0  0  0  0  0  0  0  0  0  0
    9.2443   -1.2451   25.6318 H   0  0  0  0  0  0  0  0  0  0  0  0
    9.5618    1.4838   24.5957 H   0  0  0  0  0  0  0  0  0  0  0  0
   12.3389    1.3182   24.6347 H   0  0  0  0  0  0  0  0  0  0  0  0
   14.0974    0.4287   23.1481 H   0  0  0  0  0  0  0  0  0  0  0  0
   11.2550   -2.1762   21.3208 H   0  0  0  0  0  0  0  0  0  0  0  0
    7.2038   -1.8171   21.0125 H   0  0  0  0  0  0  0  0  0  0  0  0
    5.6596    0.0673   22.3027 H   0  0  0  0  0  0  0  0  0  0  0  0
    3.7255    1.4276   22.8779 H   0  0  0  0  0  0  0  0  0  0  0  0
    2.5141    2.6783   21.1476 H   0  0  0  0  0  0  0  0  0  0  0  0
    3.2513    2.6218   18.8291 H   0  0  0  0  0  0  0  0  0  0  0  0
    4.8778    1.7833   17.1104 H   0  0  0  0  0  0  0  0  0  0  0  0
    7.9073   -0.8332   18.1193 H   0  0  0  0  0  0  0  0  0  0  0  0
  1  2  2  0
  2  3  1  0
  2 14  1  0
  3  4  1  0
  3  7  1  0
  3 25  1  6
  4  5  1  0
  4 26  1  6
  4 27  1  0
  5  6  1  0
  5 28  1  1
  5 29  1  0
  6  8  1  0
  6 30  1  0
  7  8  1  0
  7 11  2  0
  8  9  2  0
  9 10  1  0
  9 31  1  0
 10 12  2  0
 10 32  1  0
 11 12  1  0
 11 33  1  0
 12 13  1  0
 14 15  1  0
 14 34  1  0
 15 16  2  0
 15 24  1  0
 16 17  1  0
 16 21  1  0
 17 18  2  0
 17 35  1  0
 18 19  1  0
 18 36  1  0
 19 20  2  0
 19 37  1  0
 20 21  1  0
 20 38  1  0
 21 22  2  0
 22 23  1  0
 22 39  1  0
 23 24  2  0
 24 40  1  0
M  END
$$$$
