LIG(A-305)
     RDKit          3D

 40 41  0  0  1  0  0  0  0  0999 V2000
   14.0039   -1.9124   21.3911 Cl  0  0  0  0  0  0  0  0  0  0  0  0
   12.9068   -0.7554   22.0771 C   0  0  0  0  0  0  0  0  0  0  0  0
   13.3968    0.4467   22.5440 C   0  0  0  0  0  0  0  0  0  0  0  0
   12.5098    1.3537   23.1010 C   0  0  0  0  0  0  0  0  0  0  0  0
   11.1598    1.0456   23.1890 C   0  0  0  0  0  0  0  0  0  0  0  0
   11.5679   -1.0764   22.1581 C   0  0  0  0  0  0  0  0  0  0  0  0
   10.6758   -0.1714   22.7200 C   0  0  0  0  0  0  0  0  0  0  0  0
    9.1938   -0.5144   22.7640 C   0  0  1  0  0  0  0  0  0  0  0  0
    8.5558   -0.4284   24.1930 C   0  0  1  0  0  0  0  0  0  0  0  0
    8.8988    0.8616   24.9150 C   0  0  1  0  0  0  0  0  0  0  0  0
    7.0458   -0.6384   24.1730 C   0  0  1  0  0  0  0  0  0  0  0  0
    8.4568    0.2985   21.6990 C   0  0  0  0  0  0  0  0  0  0  0  0
    8.7818    1.4485   21.4259 O   0  0  0  0  0  0  0  0  0  0  0  0
    7.5029   -0.3755   21.0220 N   0  0  0  0  0  0  0  0  0  0  0  0
    6.7829    0.1594   19.9260 C   0  0  0  0  0  0  0  0  0  0  0  0
    5.6048    0.9044   20.1519 C   0  0  0  0  0  0  0  0  0  0  0  0
    5.0248    1.0884   21.5309 C   0  0  1  0  0  0  0  0  0  0  0  0
    4.9918    1.4793   19.0429 C   0  0  0  0  0  0  0  0  0  0  0  0
    5.5429    1.3023   17.7899 C   0  0  0  0  0  0  0  0  0  0  0  0
    6.6509    0.5923   17.5620 N   0  0  0  0  0  0  0  0  0  0  0  0
    7.2519    0.0304   18.6180 C   0  0  0  0  0  0  0  0  0  0  0  0
   14.4500    0.6760   22.4768 H   0  0  0  0  0  0  0  0  0  0  0  0
   12.8703    2.3034   23.4678 H   0  0  0  0  0  0  0  0  0  0  0  0
   10.4769    1.7588   23.6266 H   0  0  0  0  0  0  0  0  0  0  0  0
   11.2144   -2.0268   21.7864 H   0  0  0  0  0  0  0  0  0  0  0  0
    9.1105   -1.5683   22.4602 H   0  0  0  0  0  0  0  0  0  0  0  0
    8.9881   -1.2525   24.7795 H   0  0  0  0  0  0  0  0  0  0  0  0
    8.4250    0.8640   25.9077 H   0  0  0  0  0  0  0  0  0  0  0  0
    9.9901    0.9386   25.0296 H   0  0  0  0  0  0  0  0  0  0  0  0
    8.5302    1.7177   24.3308 H   0  0  0  0  0  0  0  0  0  0  0  0
    6.6517   -0.5680   25.1976 H   0  0  0  0  0  0  0  0  0  0  0  0
    6.5766    0.1339   23.5459 H   0  0  0  0  0  0  0  0  0  0  0  0
    6.8196   -1.6329   23.7607 H   0  0  0  0  0  0  0  0  0  0  0  0
    7.2919   -1.3090   21.3120 H   0  0  0  0  0  0  0  0  0  0  0  0
    5.7601    1.5941   22.1740 H   0  0  0  0  0  0  0  0  0  0  0  0
    4.1126    1.6998   21.4663 H   0  0  0  0  0  0  0  0  0  0  0  0
    4.7780    0.1056   21.9589 H   0  0  0  0  0  0  0  0  0  0  0  0
    4.0897    2.0610   19.1620 H   0  0  0  0  0  0  0  0  0  0  0  0
    5.0506    1.7637   16.9467 H   0  0  0  0  0  0  0  0  0  0  0  0
    8.1452   -0.5525   18.4490 H   0  0  0  0  0  0  0  0  0  0  0  0
  1  2  1  0
  2  3  2  0
  2  6  1  0
  3  4  1  0
  3 22  1  0
  4  5  2  0
  4 23  1  0
  5  7  1  0
  5 24  1  0
  6  7  2  0
  6 25  1  0
  7  8  1  0
  8  9  1  0
  8 12  1  0
  8 26  1  6
  9 10  1  0
  9 11  1  0
  9 27  1  1
 10 28  1  1
 10 29  1  0
 10 30  1  0
 11 31  1  1
 11 32  1  0
 11 33  1  0
 12 13  2  0
 12 14  1  0
 14 15  1  0
 14 34  1  0
 15 16  2  0
 15 21  1  0
 16 17  1  0
 16 18  1  0
 17 35  1  1
 17 36  1  0
 17 37  1  0
 18 19  2  0
 18 38  1  0
 19 20  1  0
 19 39  1  0
 20 21  2  0
 21 40  1  0
M  END
$$$$
