LIG(A-306)
     RDKit          3D

 50 54  0  0  1  0  0  0  0  0999 V2000
   -9.1848    0.6295  -21.3021 O   0  0  0  0  0  0  0  0  0  0  0  0
   -8.8665   -0.5555  -21.2306 C   0  0  0  0  0  0  0  0  0  0  0  0
   -8.0975   -1.0517  -20.2442 N   0  0  0  0  0  0  0  0  0  0  0  0
   -7.0841   -0.4507  -19.4694 C   0  0  0  0  0  0  0  0  0  0  0  0
   -6.1764    0.5140  -20.0213 C   0  0  0  0  0  0  0  0  0  0  0  0
   -5.9298    0.6641  -21.4131 C   0  0  0  0  0  0  0  0  0  0  0  0
   -4.9574    1.5093  -21.8685 C   0  0  0  0  0  0  0  0  0  0  0  0
   -4.1895    2.2494  -20.9810 C   0  0  0  0  0  0  0  0  0  0  0  0
   -4.3990    2.1544  -19.6350 C   0  0  0  0  0  0  0  0  0  0  0  0
   -5.3894    1.2830  -19.1177 C   0  0  0  0  0  0  0  0  0  0  0  0
   -5.5782    1.0688  -17.7342 C   0  0  0  0  0  0  0  0  0  0  0  0
   -6.4107    0.1780  -17.2241 N   0  0  0  0  0  0  0  0  0  0  0  0
   -7.1206   -0.5624  -18.0798 C   0  0  0  0  0  0  0  0  0  0  0  0
   -9.4543   -1.6149  -22.1664 C   0  0  1  0  0  0  0  0  0  0  0  0
  -10.8920   -1.3023  -22.5295 C   0  0  0  0  0  0  0  0  0  0  0  0
  -11.1651   -0.4001  -23.5652 C   0  0  0  0  0  0  0  0  0  0  0  0
  -12.4777   -0.0429  -23.8673 C   0  0  0  0  0  0  0  0  0  0  0  0
  -13.5221   -0.5959  -23.1448 C   0  0  0  0  0  0  0  0  0  0  0  0
  -11.9515   -1.8711  -21.8311 C   0  0  0  0  0  0  0  0  0  0  0  0
  -13.2460   -1.5089  -22.1443 C   0  0  0  0  0  0  0  0  0  0  0  0
  -14.5605   -2.2098  -21.2370 Cl  0  0  0  0  0  0  0  0  0  0  0  0
   -8.6492   -1.7184  -23.4768 C   0  0  1  0  0  0  0  0  0  0  0  0
   -8.7210   -0.4096  -24.2683 C   0  0  1  0  0  0  0  0  0  0  0  0
  -10.0829    0.1320  -24.3537 N   0  0  0  0  0  0  0  0  0  0  0  0
  -10.2542    1.2943  -25.2026 C   0  0  1  0  0  0  0  0  0  0  0  0
  -10.3899    0.9075  -26.6387 C   0  0  0  0  0  0  0  0  0  0  0  0
  -10.9572   -0.2598  -27.0540 N   0  0  0  0  0  0  0  0  0  0  0  0
  -10.9360   -0.2602  -28.4190 C   0  0  0  0  0  0  0  0  0  0  0  0
  -10.3476    0.9226  -28.7927 C   0  0  0  0  0  0  0  0  0  0  0  0
  -10.0044    1.6551  -27.6787 N   0  0  0  0  0  0  0  0  0  0  0  0
   -8.2750   -2.0105  -20.0227 H   0  0  0  0  0  0  0  0  0  0  0  0
   -6.5200    0.1016  -22.1215 H   0  0  0  0  0  0  0  0  0  0  0  0
   -4.7847    1.6022  -22.9305 H   0  0  0  0  0  0  0  0  0  0  0  0
   -3.4195    2.9063  -21.3579 H   0  0  0  0  0  0  0  0  0  0  0  0
   -3.8039    2.7493  -18.9579 H   0  0  0  0  0  0  0  0  0  0  0  0
   -5.0040    1.6731  -17.0476 H   0  0  0  0  0  0  0  0  0  0  0  0
   -7.7776   -1.3099  -17.6604 H   0  0  0  0  0  0  0  0  0  0  0  0
   -9.4207   -2.5899  -21.6584 H   0  0  0  0  0  0  0  0  0  0  0  0
  -12.6796    0.6615  -24.6607 H   0  0  0  0  0  0  0  0  0  0  0  0
  -14.5426   -0.3163  -23.3612 H   0  0  0  0  0  0  0  0  0  0  0  0
  -11.7626   -2.5914  -21.0489 H   0  0  0  0  0  0  0  0  0  0  0  0
   -7.5981   -1.9370  -23.2372 H   0  0  0  0  0  0  0  0  0  0  0  0
   -9.0624   -2.5330  -24.0898 H   0  0  0  0  0  0  0  0  0  0  0  0
   -8.0777    0.3343  -23.7757 H   0  0  0  0  0  0  0  0  0  0  0  0
   -8.3525   -0.5952  -25.2880 H   0  0  0  0  0  0  0  0  0  0  0  0
  -11.1602    1.8344  -24.8906 H   0  0  0  0  0  0  0  0  0  0  0  0
   -9.3788    1.9510  -25.0905 H   0  0  0  0  0  0  0  0  0  0  0  0
  -11.3177   -0.9821  -26.4578 H   0  0  0  0  0  0  0  0  0  0  0  0
  -11.3072   -1.0351  -29.0733 H   0  0  0  0  0  0  0  0  0  0  0  0
  -10.1784    1.2336  -29.8131 H   0  0  0  0  0  0  0  0  0  0  0  0
  1  2  2  0
  2  3  1  0
  2 14  1  0
  3  4  1  0
  3 31  1  0
  4  5  2  0
  4 13  1  0
  5  6  1  0
  5 10  1  0
  6  7  2  0
  6 32  1  0
  7  8  1  0
  7 33  1  0
  8  9  2  0
  8 34  1  0
  9 10  1  0
  9 35  1  0
 10 11  2  0
 11 12  1  0
 11 36  1  0
 12 13  2  0
 13 37  1  0
 14 15  1  0
 14 22  1  0
 14 38  1  1
 15 16  2  0
 15 19  1  0
 16 17  1  0
 16 24  1  0
 17 18  2  0
 17 39  1  0
 18 20  1  0
 18 40  1  0
 19 20  2  0
 19 41  1  0
 20 21  1  0
 22 23  1  0
 22 42  1  1
 22 43  1  0
 23 24  1  0
 23 44  1  1
 23 45  1  0
 24 25  1  0
 25 26  1  0
 25 46  1  1
 25 47  1  0
 26 27  1  0
 26 30  2  0
 27 28  1  0
 27 48  1  0
 28 29  2  0
 28 49  1  0
 29 30  1  0
 29 50  1  0
M  END
$$$$
