LIG(A-305)
     RDKit          3D

 39 40  0  0  0  0  0  0  0  0999 V2000
    6.9662   -4.3454   21.3684 N   0  0  0  0  0  0  0  0  0  0  0  0
    7.0517   -3.0964   19.2484 C   0  0  1  0  0  0  0  0  0  0  0  0
    5.6766   -4.9792   19.6227 O   0  0  0  0  0  0  0  0  0  0  0  0
    6.5088   -4.2163   20.0995 C   0  0  0  0  0  0  0  0  0  0  0  0
    7.2634   -4.8745   29.1593 C   0  0  1  0  0  0  0  0  0  0  0  0
    5.8244   -4.4803   28.8777 C   0  0  1  0  0  0  0  0  0  0  0  0
    5.7313   -3.3182   27.9027 C   0  0  1  0  0  0  0  0  0  0  0  0
    7.8905   -3.4455   22.0721 C   0  0  1  0  0  0  0  0  0  0  0  0
    7.2090   -2.8484   23.2873 C   0  0  1  0  0  0  0  0  0  0  0  0
    6.6731   -3.9553   24.2035 C   0  0  2  0  0  0  0  0  0  0  0  0
    5.7597   -4.8752   23.4107 C   0  0  1  0  0  0  0  0  0  0  0  0
    6.4963   -5.4423   22.2215 C   0  0  2  0  0  0  0  0  0  0  0  0
    5.9675   -3.4083   25.4247 C   0  0  0  0  0  0  0  0  0  0  0  0
    7.9049   -3.9195   26.9651 C   0  0  1  0  0  0  0  0  0  0  0  0
    7.9830   -5.1416   27.8521 C   0  0  1  0  0  0  0  0  0  0  0  0
    6.5099   -3.5613   26.6795 N   0  0  0  0  0  0  0  0  0  0  0  0
    4.8856   -2.8421   25.2910 O   0  0  0  0  0  0  0  0  0  0  0  0
    6.5859   -3.1330   18.2525 H   0  0  0  0  0  0  0  0  0  0  0  0
    6.8242   -2.1310   19.7241 H   0  0  0  0  0  0  0  0  0  0  0  0
    8.1414   -3.2077   19.1476 H   0  0  0  0  0  0  0  0  0  0  0  0
    7.7687   -4.0572   29.6948 H   0  0  0  0  0  0  0  0  0  0  0  0
    7.2795   -5.7836   29.7783 H   0  0  0  0  0  0  0  0  0  0  0  0
    5.2966   -5.3455   28.4501 H   0  0  0  0  0  0  0  0  0  0  0  0
    5.3446   -4.1890   29.8238 H   0  0  0  0  0  0  0  0  0  0  0  0
    4.6766   -3.1686   27.6285 H   0  0  0  0  0  0  0  0  0  0  0  0
    6.1147   -2.4115   28.3934 H   0  0  0  0  0  0  0  0  0  0  0  0
    8.7767   -4.0124   22.3934 H   0  0  0  0  0  0  0  0  0  0  0  0
    8.1988   -2.6366   21.3933 H   0  0  0  0  0  0  0  0  0  0  0  0
    7.9340   -2.2372   23.8447 H   0  0  0  0  0  0  0  0  0  0  0  0
    6.3722   -2.2151   22.9578 H   0  0  0  0  0  0  0  0  0  0  0  0
    7.5328   -4.5492   24.5473 H   0  0  0  0  0  0  0  0  0  0  0  0
    5.4242   -5.6995   24.0572 H   0  0  0  0  0  0  0  0  0  0  0  0
    4.8865   -4.3059   23.0596 H   0  0  0  0  0  0  0  0  0  0  0  0
    7.3580   -6.0304   22.5703 H   0  0  0  0  0  0  0  0  0  0  0  0
    5.8190   -6.0903   21.6457 H   0  0  0  0  0  0  0  0  0  0  0  0
    8.3958   -3.0758   27.4722 H   0  0  0  0  0  0  0  0  0  0  0  0
    8.4229   -4.1297   26.0177 H   0  0  0  0  0  0  0  0  0  0  0  0
    9.0377   -5.3769   28.0574 H   0  0  0  0  0  0  0  0  0  0  0  0
    7.5097   -5.9936   27.3422 H   0  0  0  0  0  0  0  0  0  0  0  0
  1  4  1  0
  1  8  1  0
  1 12  1  0
  2  4  1  0
  2 18  1  6
  2 19  1  0
  2 20  1  0
  3  4  2  0
  5  6  1  0
  5 15  1  0
  5 21  1  1
  5 22  1  0
  6  7  1  0
  6 23  1  6
  6 24  1  0
  7 16  1  0
  7 25  1  6
  7 26  1  0
  8  9  1  0
  8 27  1  1
  8 28  1  0
  9 10  1  0
  9 29  1  1
  9 30  1  0
 10 11  1  0
 10 13  1  0
 10 31  1  1
 11 12  1  0
 11 32  1  1
 11 33  1  0
 12 34  1  1
 12 35  1  0
 13 16  1  0
 13 17  2  0
 14 15  1  0
 14 16  1  0
 14 36  1  1
 14 37  1  0
 15 38  1  1
 15 39  1  0
M  END
$$$$
