LIG(A-306)
     RDKit          3D

 40 43  0  0  1  0  0  0  0  0999 V2000
  -14.8318   -2.3567  -20.5141 Cl  0  0  0  0  0  0  0  0  0  0  0  0
  -13.8550   -1.4649  -21.6427 C   0  0  0  0  0  0  0  0  0  0  0  0
  -14.4575   -0.5507  -22.4791 C   0  0  0  0  0  0  0  0  0  0  0  0
  -13.6770    0.1736  -23.3631 C   0  0  0  0  0  0  0  0  0  0  0  0
  -12.4909   -1.6726  -21.6545 C   0  0  0  0  0  0  0  0  0  0  0  0
  -11.6874   -0.9464  -22.5280 C   0  0  0  0  0  0  0  0  0  0  0  0
  -12.3053   -0.0343  -23.3931 C   0  0  0  0  0  0  0  0  0  0  0  0
  -11.6256    0.6536  -24.3714 O   0  0  0  0  0  0  0  0  0  0  0  0
  -10.1853    0.6866  -24.2473 C   0  0  1  0  0  0  0  0  0  0  0  0
   -9.6117   -0.6613  -23.8982 C   0  0  1  0  0  0  0  0  0  0  0  0
  -10.1838   -1.1430  -22.5536 C   0  0  1  0  0  0  0  0  0  0  0  0
   -9.5550   -0.3754  -21.3889 C   0  0  0  0  0  0  0  0  0  0  0  0
  -10.1092    0.5852  -20.8647 O   0  0  0  0  0  0  0  0  0  0  0  0
   -8.2862   -0.7213  -21.1055 N   0  0  0  0  0  0  0  0  0  0  0  0
   -7.4996   -0.4210  -19.9785 C   0  0  0  0  0  0  0  0  0  0  0  0
   -7.9594   -0.4096  -18.6619 C   0  0  0  0  0  0  0  0  0  0  0  0
   -7.2803    0.1063  -17.6271 N   0  0  0  0  0  0  0  0  0  0  0  0
   -6.1011    0.6828  -17.8785 C   0  0  0  0  0  0  0  0  0  0  0  0
   -6.2663    0.1914  -20.2198 C   0  0  0  0  0  0  0  0  0  0  0  0
   -5.5908    0.5755  -21.3868 N   0  0  0  0  0  0  0  0  0  0  0  0
   -5.9412    0.2528  -22.7693 C   0  0  1  0  0  0  0  0  0  0  0  0
   -5.5809    0.7751  -19.1617 C   0  0  0  0  0  0  0  0  0  0  0  0
   -4.5068    1.4738  -19.6923 N   0  0  0  0  0  0  0  0  0  0  0  0
   -4.4969    1.3571  -21.0543 C   0  0  0  0  0  0  0  0  0  0  0  0
   -3.6848    1.8295  -21.8377 O   0  0  0  0  0  0  0  0  0  0  0  0
  -15.5265   -0.4010  -22.4453 H   0  0  0  0  0  0  0  0  0  0  0  0
  -14.1322    0.8955  -24.0250 H   0  0  0  0  0  0  0  0  0  0  0  0
  -12.0481   -2.3972  -20.9874 H   0  0  0  0  0  0  0  0  0  0  0  0
   -9.7551    1.0173  -25.2042 H   0  0  0  0  0  0  0  0  0  0  0  0
   -9.9145    1.4020  -23.4568 H   0  0  0  0  0  0  0  0  0  0  0  0
   -9.8733   -1.3837  -24.6854 H   0  0  0  0  0  0  0  0  0  0  0  0
   -8.5172   -0.5828  -23.8215 H   0  0  0  0  0  0  0  0  0  0  0  0
   -9.9596   -2.2136  -22.4367 H   0  0  0  0  0  0  0  0  0  0  0  0
   -7.8328   -1.2768  -21.8026 H   0  0  0  0  0  0  0  0  0  0  0  0
   -8.9272   -0.8454  -18.4623 H   0  0  0  0  0  0  0  0  0  0  0  0
   -5.5337    1.0907  -17.0550 H   0  0  0  0  0  0  0  0  0  0  0  0
   -6.9428    0.6471  -22.9958 H   0  0  0  0  0  0  0  0  0  0  0  0
   -5.2058    0.7075  -23.4495 H   0  0  0  0  0  0  0  0  0  0  0  0
   -5.9382   -0.8390  -22.9030 H   0  0  0  0  0  0  0  0  0  0  0  0
   -3.8369    1.9880  -19.1555 H   0  0  0  0  0  0  0  0  0  0  0  0
  1  2  1  0
  2  3  2  0
  2  5  1  0
  3  4  1  0
  3 26  1  0
  4  7  2  0
  4 27  1  0
  5  6  2  0
  5 28  1  0
  6  7  1  0
  6 11  1  0
  7  8  1  0
  8  9  1  0
  9 10  1  0
  9 29  1  6
  9 30  1  0
 10 11  1  0
 10 31  1  6
 10 32  1  0
 11 12  1  0
 11 33  1  1
 12 13  2  0
 12 14  1  0
 14 15  1  0
 14 34  1  0
 15 16  2  0
 15 19  1  0
 16 17  1  0
 16 35  1  0
 17 18  2  0
 18 22  1  0
 18 36  1  0
 19 20  1  0
 19 22  2  0
 20 21  1  0
 20 24  1  0
 21 37  1  6
 21 38  1  0
 21 39  1  0
 22 23  1  0
 23 24  1  0
 23 40  1  0
 24 25  2  0
M  END
$$$$
