LIG(A-307)
     RDKit          3D

 58 62  0  0  1  0  0  0  0  0999 V2000
    9.5181    1.2694   21.1281 O   0  0  0  0  0  0  0  0  0  0  0  0
    8.9959    0.3352   21.7193 C   0  0  0  0  0  0  0  0  0  0  0  0
    7.8252   -0.2088   21.3126 N   0  0  0  0  0  0  0  0  0  0  0  0
    7.0564    0.1625   20.1881 C   0  0  0  0  0  0  0  0  0  0  0  0
    5.8503    0.9023   20.4008 C   0  0  0  0  0  0  0  0  0  0  0  0
    5.3555    1.2566   21.6833 C   0  0  0  0  0  0  0  0  0  0  0  0
    4.2204    2.0066   21.8179 C   0  0  0  0  0  0  0  0  0  0  0  0
    3.5250    2.4420   20.6976 C   0  0  0  0  0  0  0  0  0  0  0  0
    3.9533    2.1149   19.4420 C   0  0  0  0  0  0  0  0  0  0  0  0
    5.1225    1.3337   19.2590 C   0  0  0  0  0  0  0  0  0  0  0  0
    5.6251    0.9808   17.9836 C   0  0  0  0  0  0  0  0  0  0  0  0
    6.7361    0.2839   17.7868 N   0  0  0  0  0  0  0  0  0  0  0  0
    7.4233   -0.1060   18.8685 C   0  0  0  0  0  0  0  0  0  0  0  0
    9.6137   -0.2163   23.0221 C   0  0  1  0  0  0  0  0  0  0  0  0
   11.1301   -0.0229   22.9849 C   0  0  0  0  0  0  0  0  0  0  0  0
   11.9160   -0.8117   22.1509 C   0  0  0  0  0  0  0  0  0  0  0  0
   13.2739   -0.5706   22.0754 C   0  0  0  0  0  0  0  0  0  0  0  0
   14.2138   -1.4350   20.8923 Cl  0  0  0  0  0  0  0  0  0  0  0  0
   13.8882    0.3971   22.8457 C   0  0  0  0  0  0  0  0  0  0  0  0
   13.1238    1.1616   23.7079 C   0  0  0  0  0  0  0  0  0  0  0  0
   11.7559    0.9526   23.7642 C   0  0  0  0  0  0  0  0  0  0  0  0
   11.0653    1.7407   24.6480 O   0  0  0  0  0  0  0  0  0  0  0  0
    9.9145    1.0769   25.1972 C   0  0  1  0  0  0  0  0  0  0  0  0
    8.9416    0.6476   24.1179 C   0  0  2  0  0  0  0  0  0  0  0  0
    9.3392   -1.7284   23.2231 C   0  0  1  0  0  0  0  0  0  0  0  0
    7.9873   -2.0695   23.6582 N   0  0  1  0  0  0  0  0  0  0  0  0
    7.6685   -3.4631   23.4074 C   0  0  1  0  0  0  0  0  0  0  0  0
    8.5231   -4.2888   24.3150 C   0  0  0  0  0  0  0  0  0  0  0  0
    9.3788   -5.3853   23.9915 C   0  0  0  0  0  0  0  0  0  0  0  0
    9.9232   -5.7755   25.1736 C   0  0  0  0  0  0  0  0  0  0  0  0
    8.5450   -4.0303   25.6259 N   0  0  0  0  0  0  0  0  0  0  0  0
    9.3982   -4.9583   26.1355 N   0  0  0  0  0  0  0  0  0  0  0  0
    9.5867   -5.0395   27.5765 C   0  0  1  0  0  0  0  0  0  0  0  0
    7.4648   -0.9565   21.8704 H   0  0  0  0  0  0  0  0  0  0  0  0
    5.8838    0.9287   22.5663 H   0  0  0  0  0  0  0  0  0  0  0  0
    3.8615    2.2626   22.8039 H   0  0  0  0  0  0  0  0  0  0  0  0
    2.6373    3.0448   20.8199 H   0  0  0  0  0  0  0  0  0  0  0  0
    3.3964    2.4545   18.5812 H   0  0  0  0  0  0  0  0  0  0  0  0
    5.0681    1.2997   17.1150 H   0  0  0  0  0  0  0  0  0  0  0  0
    8.3297   -0.6707   18.7073 H   0  0  0  0  0  0  0  0  0  0  0  0
   11.4691   -1.6040   21.5687 H   0  0  0  0  0  0  0  0  0  0  0  0
   14.9543    0.5552   22.7754 H   0  0  0  0  0  0  0  0  0  0  0  0
   13.5880    1.9127   24.3298 H   0  0  0  0  0  0  0  0  0  0  0  0
   10.2478    0.1863   25.7502 H   0  0  0  0  0  0  0  0  0  0  0  0
    9.4015    1.7651   25.8851 H   0  0  0  0  0  0  0  0  0  0  0  0
    8.1347    0.0622   24.5830 H   0  0  0  0  0  0  0  0  0  0  0  0
    8.5176    1.5470   23.6472 H   0  0  0  0  0  0  0  0  0  0  0  0
    9.5255   -2.2370   22.2657 H   0  0  0  0  0  0  0  0  0  0  0  0
   10.0436   -2.1031   23.9805 H   0  0  0  0  0  0  0  0  0  0  0  0
    7.9100   -1.8925   24.6394 H   0  0  0  0  0  0  0  0  0  0  0  0
    7.3348   -1.4953   23.1636 H   0  0  0  0  0  0  0  0  0  0  0  0
    6.6054   -3.6495   23.6196 H   0  0  0  0  0  0  0  0  0  0  0  0
    7.8826   -3.7145   22.3581 H   0  0  0  0  0  0  0  0  0  0  0  0
    9.5555   -5.8131   23.0157 H   0  0  0  0  0  0  0  0  0  0  0  0
   10.6326   -6.5757   25.3241 H   0  0  0  0  0  0  0  0  0  0  0  0
   10.2428   -5.8900   27.8136 H   0  0  0  0  0  0  0  0  0  0  0  0
   10.0475   -4.1088   27.9389 H   0  0  0  0  0  0  0  0  0  0  0  0
    8.6120   -5.1809   28.0662 H   0  0  0  0  0  0  0  0  0  0  0  0
  1  2  2  0
  2  3  1  0
 14  2  1  6
  3  4  1  0
  3 34  1  0
  4  5  2  0
  4 13  1  0
  5  6  1  0
  5 10  1  0
  6  7  2  0
  6 35  1  0
  7  8  1  0
  7 36  1  0
  8  9  2  0
  8 37  1  0
  9 10  1  0
  9 38  1  0
 10 11  2  0
 11 12  1  0
 11 39  1  0
 12 13  2  0
 13 40  1  0
 14 15  1  0
 14 24  1  0
 14 25  1  0
 15 16  2  0
 15 21  1  0
 16 17  1  0
 16 41  1  0
 17 18  1  0
 17 19  2  0
 19 20  1  0
 19 42  1  0
 20 21  2  0
 20 43  1  0
 21 22  1  0
 22 23  1  0
 23 24  1  0
 23 44  1  1
 23 45  1  0
 24 46  1  1
 24 47  1  0
 25 26  1  0
 25 48  1  6
 25 49  1  0
 26 27  1  0
 26 50  1  1
 26 51  1  0
 27 28  1  0
 27 52  1  1
 27 53  1  0
 28 29  1  0
 28 31  2  0
 29 30  2  0
 29 54  1  0
 30 32  1  0
 30 55  1  0
 31 32  1  0
 32 33  1  0
 33 56  1  6
 33 57  1  0
 33 58  1  0
M  CHG  1  26   1
M  END
$$$$
