LIG(A-305)
     RDKit          3D

 36 38  0  0  1  0  0  0  0  0999 V2000
    6.9439   -3.2742   20.0792 C   0  0  0  0  0  0  0  0  0  0  0  0
    7.4478   -2.6452   18.8102 C   0  0  1  0  0  0  0  0  0  0  0  0
    6.6280   -3.1052   22.5052 C   0  0  1  0  0  0  0  0  0  0  0  0
    7.6100   -3.6492   23.5052 C   0  0  0  0  0  0  0  0  0  0  0  0
    7.1481   -4.4823   24.5262 C   0  0  0  0  0  0  0  0  0  0  0  0
    8.0232   -4.9993   25.4631 C   0  0  0  0  0  0  0  0  0  0  0  0
    9.3681   -4.6953   25.3930 C   0  0  0  0  0  0  0  0  0  0  0  0
    9.8401   -3.8703   24.3840 C   0  0  0  0  0  0  0  0  0  0  0  0
    8.9690   -3.3272   23.4311 C   0  0  0  0  0  0  0  0  0  0  0  0
    9.5160   -2.4332   22.3231 C   0  0  2  0  0  0  0  0  0  0  0  0
   10.4880   -1.3802   22.8160 C   0  0  0  0  0  0  0  0  0  0  0  0
   11.7700   -1.2912   22.2899 C   0  0  0  0  0  0  0  0  0  0  0  0
   12.6580   -0.3292   22.7429 C   0  0  0  0  0  0  0  0  0  0  0  0
   12.2761    0.5617   23.7199 C   0  0  0  0  0  0  0  0  0  0  0  0
   11.0091    0.4917   24.2490 C   0  0  0  0  0  0  0  0  0  0  0  0
   10.1191   -0.4733   23.8011 C   0  0  0  0  0  0  0  0  0  0  0  0
    8.4059   -1.7802   21.5041 C   0  0  1  0  0  0  0  0  0  0  0  0
    7.3169   -2.7302   21.2692 N   0  0  0  0  0  0  0  0  0  0  0  0
    6.2078   -4.2492   20.0072 O   0  0  0  0  0  0  0  0  0  0  0  0
    7.0505   -3.1956   17.9446 H   0  0  0  0  0  0  0  0  0  0  0  0
    7.1148   -1.5979   18.7628 H   0  0  0  0  0  0  0  0  0  0  0  0
    8.5471   -2.6815   18.7945 H   0  0  0  0  0  0  0  0  0  0  0  0
    5.8741   -3.8744   22.2814 H   0  0  0  0  0  0  0  0  0  0  0  0
    6.1329   -2.2186   22.9282 H   0  0  0  0  0  0  0  0  0  0  0  0
    6.0973   -4.7248   24.5844 H   0  0  0  0  0  0  0  0  0  0  0  0
    7.6548   -5.6410   26.2498 H   0  0  0  0  0  0  0  0  0  0  0  0
   10.0523   -5.1001   26.1241 H   0  0  0  0  0  0  0  0  0  0  0  0
   10.8946   -3.6430   24.3320 H   0  0  0  0  0  0  0  0  0  0  0  0
   10.0743   -3.0859   21.6359 H   0  0  0  0  0  0  0  0  0  0  0  0
   12.0786   -1.9806   21.5180 H   0  0  0  0  0  0  0  0  0  0  0  0
   13.6538   -0.2782   22.3279 H   0  0  0  0  0  0  0  0  0  0  0  0
   12.9689    1.3128   24.0696 H   0  0  0  0  0  0  0  0  0  0  0  0
   10.7060    1.1898   25.0153 H   0  0  0  0  0  0  0  0  0  0  0  0
    9.1263   -0.5200   24.2237 H   0  0  0  0  0  0  0  0  0  0  0  0
    8.0156   -0.9100   22.0522 H   0  0  0  0  0  0  0  0  0  0  0  0
    8.8147   -1.4514   20.5373 H   0  0  0  0  0  0  0  0  0  0  0  0
  1  2  1  0
  1 18  1  0
  1 19  2  0
  2 20  1  6
  2 21  1  0
  2 22  1  0
  3  4  1  0
  3 18  1  0
  3 23  1  6
  3 24  1  0
  4  5  2  0
  4  9  1  0
  5  6  1  0
  5 25  1  0
  6  7  2  0
  6 26  1  0
  7  8  1  0
  7 27  1  0
  8  9  2  0
  8 28  1  0
  9 10  1  0
 10 11  1  0
 10 17  1  0
 10 29  1  6
 11 12  2  0
 11 16  1  0
 12 13  1  0
 12 30  1  0
 13 14  2  0
 13 31  1  0
 14 15  1  0
 14 32  1  0
 15 16  2  0
 15 33  1  0
 16 34  1  0
 17 18  1  0
 17 35  1  1
 17 36  1  0
M  END
$$$$
