LIG(A-305)
     RDKit          3D

 30 31  0  0  0  0  0  0  0  0999 V2000
    7.0726   -2.9689   21.0215 N   0  0  0  0  0  0  0  0  0  0  0  0
    7.2603   -2.5879   18.5865 C   0  0  1  0  0  0  0  0  0  0  0  0
    5.8674   -4.2168   19.6066 O   0  0  0  0  0  0  0  0  0  0  0  0
    6.6784   -3.3159   19.7795 C   0  0  0  0  0  0  0  0  0  0  0  0
    8.7962   -5.3629   27.4633 C   0  0  0  0  0  0  0  0  0  0  0  0
    6.6447   -3.7899   22.1555 C   0  0  1  0  0  0  0  0  0  0  0  0
    7.8138   -4.1019   23.0564 C   0  0  1  0  0  0  0  0  0  0  0  0
    8.9078   -2.0459   22.4253 C   0  0  1  0  0  0  0  0  0  0  0  0
    7.8197   -1.7609   21.4044 C   0  0  1  0  0  0  0  0  0  0  0  0
    8.5200   -2.5529   24.8493 C   0  0  0  0  0  0  0  0  0  0  0  0
    8.8091   -3.6479   25.7173 C   0  0  0  0  0  0  0  0  0  0  0  0
    9.7010   -4.6700   25.4622 C   0  0  0  0  0  0  0  0  0  0  0  0
    9.5691   -5.7039   26.4092 C   0  0  0  0  0  0  0  0  0  0  0  0
    8.3749   -2.8399   23.5314 N   0  0  0  0  0  0  0  0  0  0  0  0
    8.4191   -1.4129   25.2974 O   0  0  0  0  0  0  0  0  0  0  0  0
    8.0392   -3.8599   27.2434 S   0  0  0  0  0  0  0  0  0  0  0  0
    6.8383   -3.0050   17.6602 H   0  0  0  0  0  0  0  0  0  0  0  0
    7.0125   -1.5183   18.6531 H   0  0  0  0  0  0  0  0  0  0  0  0
    8.3533   -2.7112   18.5793 H   0  0  0  0  0  0  0  0  0  0  0  0
    8.6741   -5.9758   28.3441 H   0  0  0  0  0  0  0  0  0  0  0  0
    5.8817   -3.2437   22.7296 H   0  0  0  0  0  0  0  0  0  0  0  0
    6.2168   -4.7309   21.7795 H   0  0  0  0  0  0  0  0  0  0  0  0
    7.4739   -4.7036   23.9123 H   0  0  0  0  0  0  0  0  0  0  0  0
    8.5772   -4.6608   22.4953 H   0  0  0  0  0  0  0  0  0  0  0  0
    9.7232   -2.6023   21.9399 H   0  0  0  0  0  0  0  0  0  0  0  0
    9.2956   -1.0939   22.8167 H   0  0  0  0  0  0  0  0  0  0  0  0
    8.2849   -1.3340   20.5037 H   0  0  0  0  0  0  0  0  0  0  0  0
    7.1158   -1.0327   21.8338 H   0  0  0  0  0  0  0  0  0  0  0  0
   10.4066   -4.6759   24.6446 H   0  0  0  0  0  0  0  0  0  0  0  0
   10.0380   -6.6711   26.3035 H   0  0  0  0  0  0  0  0  0  0  0  0
  1  4  1  0
  1  6  1  0
  1  9  1  0
  2  4  1  0
  2 17  1  6
  2 18  1  0
  2 19  1  0
  3  4  2  0
  5 13  2  0
  5 16  1  0
  5 20  1  0
  6  7  1  0
  6 21  1  1
  6 22  1  0
  7 14  1  0
  7 23  1  1
  7 24  1  0
  8  9  1  0
  8 14  1  0
  8 25  1  6
  8 26  1  0
  9 27  1  6
  9 28  1  0
 10 11  1  0
 10 14  1  0
 10 15  2  0
 11 12  2  0
 11 16  1  0
 12 13  1  0
 12 29  1  0
 13 30  1  0
M  END
$$$$
