LIG(A-306)
     RDKit          3D

 51 54  0  0  1  0  0  0  0  0999 V2000
  -14.3329   -2.3149  -21.3543 Cl  0  0  0  0  0  0  0  0  0  0  0  0
  -13.2399   -1.4557  -22.4005 C   0  0  0  0  0  0  0  0  0  0  0  0
  -11.8830   -1.7001  -22.3039 C   0  0  0  0  0  0  0  0  0  0  0  0
  -13.7474   -0.5484  -23.2998 C   0  0  0  0  0  0  0  0  0  0  0  0
  -12.8809    0.1043  -24.1544 C   0  0  0  0  0  0  0  0  0  0  0  0
  -11.5068   -0.1271  -24.1011 C   0  0  0  0  0  0  0  0  0  0  0  0
  -10.6234    0.5244  -25.1378 C   0  0  1  0  0  0  0  0  0  0  0  0
   -9.2242    0.5196  -24.6973 N   0  0  0  0  0  0  0  0  0  0  0  0
   -8.1650    1.5301  -25.3398 S   0  0  1  0  0  0  0  0  0  0  0  0
   -6.8986    1.2981  -24.7368 O   0  0  0  0  0  0  0  0  0  0  0  0
   -8.3236    1.4986  -26.7526 O   0  0  0  0  0  0  0  0  0  0  0  0
   -8.7524    2.9120  -24.7902 N   0  0  0  0  0  0  0  0  0  0  0  0
   -8.2589    3.4168  -23.5040 C   0  0  1  0  0  0  0  0  0  0  0  0
   -9.1104    3.9453  -25.7694 C   0  0  1  0  0  0  0  0  0  0  0  0
  -10.9975   -1.0203  -23.1411 C   0  0  0  0  0  0  0  0  0  0  0  0
   -9.4992   -1.2137  -22.9790 C   0  0  1  0  0  0  0  0  0  0  0  0
   -8.7484   -0.8007  -24.2471 C   0  0  1  0  0  0  0  0  0  0  0  0
   -8.9947   -0.4086  -21.7809 C   0  0  0  0  0  0  0  0  0  0  0  0
   -9.5584    0.6193  -21.3976 O   0  0  0  0  0  0  0  0  0  0  0  0
   -7.8716   -0.9061  -21.2017 N   0  0  0  0  0  0  0  0  0  0  0  0
   -7.1599   -0.3802  -20.0981 C   0  0  0  0  0  0  0  0  0  0  0  0
   -6.0442    0.4829  -20.3434 C   0  0  0  0  0  0  0  0  0  0  0  0
   -5.5312    0.7605  -21.6370 C   0  0  0  0  0  0  0  0  0  0  0  0
   -4.4744    1.6084  -21.8057 C   0  0  0  0  0  0  0  0  0  0  0  0
   -3.8830    2.2333  -20.7121 C   0  0  0  0  0  0  0  0  0  0  0  0
   -4.3366    1.9927  -19.4465 C   0  0  0  0  0  0  0  0  0  0  0  0
   -5.4196    1.1066  -19.2239 C   0  0  0  0  0  0  0  0  0  0  0  0
   -5.9153    0.7986  -17.9340 C   0  0  0  0  0  0  0  0  0  0  0  0
   -6.9308   -0.0236  -17.7049 N   0  0  0  0  0  0  0  0  0  0  0  0
   -7.5287   -0.5821  -18.7666 C   0  0  0  0  0  0  0  0  0  0  0  0
  -11.5100   -2.4137  -21.5841 H   0  0  0  0  0  0  0  0  0  0  0  0
  -14.8081   -0.3489  -23.3375 H   0  0  0  0  0  0  0  0  0  0  0  0
  -13.2739    0.8054  -24.8758 H   0  0  0  0  0  0  0  0  0  0  0  0
  -10.7067   -0.0298  -26.0843 H   0  0  0  0  0  0  0  0  0  0  0  0
  -10.9509    1.5633  -25.2912 H   0  0  0  0  0  0  0  0  0  0  0  0
   -8.7566    4.3689  -23.2679 H   0  0  0  0  0  0  0  0  0  0  0  0
   -8.4776    2.6832  -22.7141 H   0  0  0  0  0  0  0  0  0  0  0  0
   -7.1723    3.5765  -23.5655 H   0  0  0  0  0  0  0  0  0  0  0  0
   -9.4970    4.8310  -25.2439 H   0  0  0  0  0  0  0  0  0  0  0  0
   -8.2191    4.2240  -26.3508 H   0  0  0  0  0  0  0  0  0  0  0  0
   -9.8835    3.5553  -26.4478 H   0  0  0  0  0  0  0  0  0  0  0  0
   -9.3022   -2.2792  -22.7900 H   0  0  0  0  0  0  0  0  0  0  0  0
   -8.9293   -1.5439  -25.0377 H   0  0  0  0  0  0  0  0  0  0  0  0
   -7.6707   -0.7478  -24.0333 H   0  0  0  0  0  0  0  0  0  0  0  0
   -7.5037   -1.7446  -21.6036 H   0  0  0  0  0  0  0  0  0  0  0  0
   -5.9830    0.2945  -22.5002 H   0  0  0  0  0  0  0  0  0  0  0  0
   -4.0934    1.7961  -22.7988 H   0  0  0  0  0  0  0  0  0  0  0  0
   -3.0585    2.9140  -20.8652 H   0  0  0  0  0  0  0  0  0  0  0  0
   -3.8654    2.4828  -18.6073 H   0  0  0  0  0  0  0  0  0  0  0  0
   -5.4371    1.2619  -17.0837 H   0  0  0  0  0  0  0  0  0  0  0  0
   -8.3628   -1.2414  -18.5768 H   0  0  0  0  0  0  0  0  0  0  0  0
  1  2  1  0
  2  3  2  0
  2  4  1  0
  3 15  1  0
  3 31  1  0
  4  5  2  0
  4 32  1  0
  5  6  1  0
  5 33  1  0
  6  7  1  0
  6 15  2  0
  7  8  1  0
  7 34  1  6
  7 35  1  0
  8  9  1  0
  8 17  1  0
  9 10  2  0
  9 11  2  0
  9 12  1  1
 12 13  1  0
 12 14  1  0
 13 36  1  1
 13 37  1  0
 13 38  1  0
 14 39  1  1
 14 40  1  0
 14 41  1  0
 15 16  1  0
 16 17  1  0
 16 18  1  0
 16 42  1  1
 17 43  1  6
 17 44  1  0
 18 19  2  0
 18 20  1  0
 20 21  1  0
 20 45  1  0
 21 22  2  0
 21 30  1  0
 22 23  1  0
 22 27  1  0
 23 24  2  0
 23 46  1  0
 24 25  1  0
 24 47  1  0
 25 26  2  0
 25 48  1  0
 26 27  1  0
 26 49  1  0
 27 28  2  0
 28 29  1  0
 28 50  1  0
 29 30  2  0
 30 51  1  0
M  END
$$$$
