LIG(A-305)
     RDKit          3D

 60 61  0  0  1  0  0  0  0  0999 V2000
    9.0139    1.2367   21.0313 O   0  0  0  0  0  0  0  0  0  0  0  0
    8.1070    0.9577   21.8144 C   0  0  0  0  0  0  0  0  0  0  0  0
    7.9342    1.5718   22.9804 N   0  0  0  0  0  0  0  0  0  0  0  0
    8.6783    2.7698   23.3253 C   0  0  1  0  0  0  0  0  0  0  0  0
    8.0633    3.9598   22.6603 C   0  0  1  0  0  0  0  0  0  0  0  0
    9.0423    4.9467   22.5252 O   0  0  0  0  0  0  0  0  0  0  0  0
    8.4513    6.1877   22.2612 C   0  0  1  0  0  0  0  0  0  0  0  0
    7.0469   -0.0932   21.4516 C   0  0  1  0  0  0  0  0  0  0  0  0
    6.3908    0.2048   20.1146 C   0  0  0  0  0  0  0  0  0  0  0  0
    5.2728    1.0218   20.0478 C   0  0  0  0  0  0  0  0  0  0  0  0
    4.8177    1.4768   18.8258 C   0  0  0  0  0  0  0  0  0  0  0  0
    5.5055    1.0907   17.6897 C   0  0  0  0  0  0  0  0  0  0  0  0
    6.5765    0.2927   17.7146 N   0  0  0  0  0  0  0  0  0  0  0  0
    6.9856   -0.1453   18.9096 C   0  0  0  0  0  0  0  0  0  0  0  0
    7.5029   -1.4742   21.7486 N   0  0  0  0  0  0  0  0  0  0  0  0
    6.6898   -2.5222   21.4277 C   0  0  0  0  0  0  0  0  0  0  0  0
    5.5268   -2.3542   21.0958 O   0  0  0  0  0  0  0  0  0  0  0  0
    7.2817   -3.9042   21.4237 C   0  0  1  0  0  0  0  0  0  0  0  0
    7.1675   -4.5193   20.0657 C   0  0  1  0  0  0  0  0  0  0  0  0
    8.7530   -1.6673   22.4294 C   0  0  0  0  0  0  0  0  0  0  0  0
    8.7841   -1.8162   23.8164 C   0  0  0  0  0  0  0  0  0  0  0  0
    9.9962   -1.9473   24.4743 C   0  0  0  0  0  0  0  0  0  0  0  0
   11.2021   -1.9083   23.7791 C   0  0  0  0  0  0  0  0  0  0  0  0
   12.5392   -1.9124   24.5360 C   0  0  1  0  0  0  0  0  0  0  0  0
   12.6633   -0.6164   25.3339 C   0  0  1  0  0  0  0  0  0  0  0  0
   12.6422   -3.1074   25.5040 C   0  0  1  0  0  0  0  0  0  0  0  0
   13.7401   -1.9825   23.5919 C   0  0  1  0  0  0  0  0  0  0  0  0
   11.1559   -1.7754   22.3921 C   0  0  0  0  0  0  0  0  0  0  0  0
    9.9509   -1.6633   21.7213 C   0  0  0  0  0  0  0  0  0  0  0  0
    7.2763    1.2000   23.6354 H   0  0  0  0  0  0  0  0  0  0  0  0
    8.6580    2.9104   24.4161 H   0  0  0  0  0  0  0  0  0  0  0  0
    9.7199    2.6617   22.9888 H   0  0  0  0  0  0  0  0  0  0  0  0
    7.6835    3.6754   21.6679 H   0  0  0  0  0  0  0  0  0  0  0  0
    7.2342    4.3410   23.2747 H   0  0  0  0  0  0  0  0  0  0  0  0
    9.2347    6.9529   22.1577 H   0  0  0  0  0  0  0  0  0  0  0  0
    7.8726    6.1270   21.3277 H   0  0  0  0  0  0  0  0  0  0  0  0
    7.7816    6.4587   23.0908 H   0  0  0  0  0  0  0  0  0  0  0  0
    6.2445    0.0863   22.1823 H   0  0  0  0  0  0  0  0  0  0  0  0
    4.7564    1.3033   20.9536 H   0  0  0  0  0  0  0  0  0  0  0  0
    3.9495    2.1157   18.7593 H   0  0  0  0  0  0  0  0  0  0  0  0
    5.1589    1.4531   16.7332 H   0  0  0  0  0  0  0  0  0  0  0  0
    7.8330   -0.8142   18.9397 H   0  0  0  0  0  0  0  0  0  0  0  0
    8.3433   -3.8441   21.7056 H   0  0  0  0  0  0  0  0  0  0  0  0
    6.7441   -4.5304   22.1510 H   0  0  0  0  0  0  0  0  0  0  0  0
    7.6050   -5.5284   20.0817 H   0  0  0  0  0  0  0  0  0  0  0  0
    6.1071   -4.5840   19.7806 H   0  0  0  0  0  0  0  0  0  0  0  0
    7.7063   -3.8977   19.3353 H   0  0  0  0  0  0  0  0  0  0  0  0
    7.8617   -1.8294   24.3780 H   0  0  0  0  0  0  0  0  0  0  0  0
   10.0060   -2.0820   25.5458 H   0  0  0  0  0  0  0  0  0  0  0  0
   13.6186   -0.6110   25.8793 H   0  0  0  0  0  0  0  0  0  0  0  0
   12.6288    0.2419   24.6468 H   0  0  0  0  0  0  0  0  0  0  0  0
   11.8317   -0.5461   26.0505 H   0  0  0  0  0  0  0  0  0  0  0  0
   13.6103   -3.0752   26.0253 H   0  0  0  0  0  0  0  0  0  0  0  0
   11.8272   -3.0535   26.2408 H   0  0  0  0  0  0  0  0  0  0  0  0
   12.5623   -4.0465   24.9369 H   0  0  0  0  0  0  0  0  0  0  0  0
   14.6698   -1.9828   24.1797 H   0  0  0  0  0  0  0  0  0  0  0  0
   13.6837   -2.9046   22.9948 H   0  0  0  0  0  0  0  0  0  0  0  0
   13.7306   -1.1105   22.9214 H   0  0  0  0  0  0  0  0  0  0  0  0
   12.0783   -1.7595   21.8305 H   0  0  0  0  0  0  0  0  0  0  0  0
    9.9400   -1.5726   20.6452 H   0  0  0  0  0  0  0  0  0  0  0  0
  1  2  2  0
  2  3  1  0
  2  8  1  0
  3  4  1  0
  3 30  1  0
  4  5  1  0
  4 31  1  1
  4 32  1  0
  5  6  1  0
  5 33  1  6
  5 34  1  0
  6  7  1  0
  7 35  1  6
  7 36  1  0
  7 37  1  0
  8  9  1  0
  8 15  1  0
  8 38  1  1
  9 10  2  0
  9 14  1  0
 10 11  1  0
 10 39  1  0
 11 12  2  0
 11 40  1  0
 12 13  1  0
 12 41  1  0
 13 14  2  0
 14 42  1  0
 15 16  1  0
 15 20  1  0
 16 17  2  0
 16 18  1  0
 18 19  1  0
 18 43  1  1
 18 44  1  0
 19 45  1  1
 19 46  1  0
 19 47  1  0
 20 21  2  0
 20 29  1  0
 21 22  1  0
 21 48  1  0
 22 23  2  0
 22 49  1  0
 24 23  1  6
 23 28  1  0
 24 25  1  0
 24 26  1  0
 24 27  1  0
 25 50  1  1
 25 51  1  0
 25 52  1  0
 26 53  1  1
 26 54  1  0
 26 55  1  0
 27 56  1  1
 27 57  1  0
 27 58  1  0
 28 29  2  0
 28 59  1  0
 29 60  1  0
M  END
$$$$
