LIG(A-306)
     RDKit          3D

 50 53  0  0  1  0  0  0  0  0999 V2000
   14.1722   -1.5287   21.2667 Cl  0  0  0  0  0  0  0  0  0  0  0  0
   13.0091   -0.7752   22.3244 C   0  0  0  0  0  0  0  0  0  0  0  0
   13.4297    0.2020   23.2035 C   0  0  0  0  0  0  0  0  0  0  0  0
   12.4988    0.8182   24.0227 C   0  0  0  0  0  0  0  0  0  0  0  0
   11.6816   -1.1472   22.2344 C   0  0  0  0  0  0  0  0  0  0  0  0
   10.7267   -0.5122   23.0295 C   0  0  0  0  0  0  0  0  0  0  0  0
   11.1473    0.4721   23.9436 C   0  0  0  0  0  0  0  0  0  0  0  0
   10.2344    1.1083   24.7687 N   0  0  0  0  0  0  0  0  0  0  0  0
    8.7927    0.9349   24.6231 C   0  0  1  0  0  0  0  0  0  0  0  0
    8.4736   -0.4749   24.1673 C   0  0  1  0  0  0  0  0  0  0  0  0
    9.2501   -0.8256   22.8804 C   0  0  1  0  0  0  0  0  0  0  0  0
    8.7031   -0.0449   21.6830 C   0  0  0  0  0  0  0  0  0  0  0  0
    9.2327    0.9946   21.2840 O   0  0  0  0  0  0  0  0  0  0  0  0
    7.5819   -0.5741   21.1275 N   0  0  0  0  0  0  0  0  0  0  0  0
    6.8262   -0.0583   20.0480 C   0  0  0  0  0  0  0  0  0  0  0  0
    7.0647   -0.3779   18.7099 C   0  0  0  0  0  0  0  0  0  0  0  0
    6.3901    0.1241   17.6634 N   0  0  0  0  0  0  0  0  0  0  0  0
    5.4139    0.9845   17.9208 C   0  0  0  0  0  0  0  0  0  0  0  0
    5.7829    0.8811   20.3271 C   0  0  0  0  0  0  0  0  0  0  0  0
    5.0532    1.4139   19.2235 C   0  0  0  0  0  0  0  0  0  0  0  0
    4.0309    2.3612   19.4737 C   0  0  0  0  0  0  0  0  0  0  0  0
    3.7573    2.7756   20.7444 C   0  0  0  0  0  0  0  0  0  0  0  0
    5.4602    1.3435   21.6288 C   0  0  0  0  0  0  0  0  0  0  0  0
    4.4729    2.2958   21.8429 C   0  0  0  0  0  0  0  0  0  0  0  0
    4.2551    2.8887   23.2371 C   0  0  2  0  0  0  0  0  0  0  0  0
    4.8611    2.0625   24.2536 O   0  0  0  0  0  0  0  0  0  0  0  0
    2.7679    2.9816   23.5678 C   0  0  1  0  0  0  0  0  0  0  0  0
    4.9072    4.2629   23.3441 C   0  0  1  0  0  0  0  0  0  0  0  0
   14.4715    0.4825   23.2519 H   0  0  0  0  0  0  0  0  0  0  0  0
   12.8195    1.5712   24.7274 H   0  0  0  0  0  0  0  0  0  0  0  0
   11.3836   -1.9279   21.5502 H   0  0  0  0  0  0  0  0  0  0  0  0
   10.5569    1.8893   25.3035 H   0  0  0  0  0  0  0  0  0  0  0  0
    8.3055    1.1217   25.5916 H   0  0  0  0  0  0  0  0  0  0  0  0
    8.4148    1.6509   23.8784 H   0  0  0  0  0  0  0  0  0  0  0  0
    8.7539   -1.1825   24.9615 H   0  0  0  0  0  0  0  0  0  0  0  0
    7.3944   -0.5541   23.9698 H   0  0  0  0  0  0  0  0  0  0  0  0
    9.1328   -1.9015   22.6833 H   0  0  0  0  0  0  0  0  0  0  0  0
    7.2517   -1.4285   21.5287 H   0  0  0  0  0  0  0  0  0  0  0  0
    7.8541   -1.0846   18.5003 H   0  0  0  0  0  0  0  0  0  0  0  0
    4.8583    1.3836   17.0851 H   0  0  0  0  0  0  0  0  0  0  0  0
    3.4606    2.7608   18.6482 H   0  0  0  0  0  0  0  0  0  0  0  0
    2.9665    3.4935   20.9048 H   0  0  0  0  0  0  0  0  0  0  0  0
    5.9972    0.9439   22.4763 H   0  0  0  0  0  0  0  0  0  0  0  0
    4.5844    2.3614   25.1118 H   0  0  0  0  0  0  0  0  0  0  0  0
    2.6414    3.4100   24.5730 H   0  0  0  0  0  0  0  0  0  0  0  0
    2.2678    3.6255   22.8293 H   0  0  0  0  0  0  0  0  0  0  0  0
    2.3225    1.9762   23.5391 H   0  0  0  0  0  0  0  0  0  0  0  0
    4.7397    4.6713   24.3516 H   0  0  0  0  0  0  0  0  0  0  0  0
    5.9879    4.1710   23.1608 H   0  0  0  0  0  0  0  0  0  0  0  0
    4.4646    4.9378   22.5967 H   0  0  0  0  0  0  0  0  0  0  0  0
  1  2  1  0
  2  3  1  0
  2  5  2  0
  3  4  2  0
  3 29  1  0
  4  7  1  0
  4 30  1  0
  5  6  1  0
  5 31  1  0
  6  7  2  0
  6 11  1  0
  7  8  1  0
  8  9  1  0
  8 32  1  0
  9 10  1  0
  9 33  1  1
  9 34  1  0
 10 11  1  0
 10 35  1  1
 10 36  1  0
 11 12  1  0
 11 37  1  6
 12 13  2  0
 12 14  1  0
 14 15  1  0
 14 38  1  0
 15 16  2  0
 15 19  1  0
 16 17  1  0
 16 39  1  0
 17 18  2  0
 18 20  1  0
 18 40  1  0
 19 20  2  0
 19 23  1  0
 20 21  1  0
 21 22  2  0
 21 41  1  0
 22 24  1  0
 22 42  1  0
 23 24  2  0
 23 43  1  0
 24 25  1  0
 25 26  1  1
 25 27  1  0
 25 28  1  0
 26 44  1  0
 27 45  1  1
 27 46  1  0
 27 47  1  0
 28 48  1  1
 28 49  1  0
 28 50  1  0
M  END
$$$$
