LIG(A-306)
     RDKit          3D

 40 44  0  0  1  0  0  0  0  0999 V2000
    9.2273    1.4044   21.2356 O   0  0  0  0  0  0  0  0  0  0  0  0
    8.7654    0.3898   21.7244 C   0  0  0  0  0  0  0  0  0  0  0  0
    9.3016   -0.3379   22.9583 C   0  0  1  0  0  0  0  0  0  0  0  0
   10.8016   -0.3683   23.0100 C   0  0  0  0  0  0  0  0  0  0  0  0
   11.7245   -1.0821   22.2538 C   0  0  0  0  0  0  0  0  0  0  0  0
   13.0627   -0.7605   22.3797 C   0  0  0  0  0  0  0  0  0  0  0  0
   14.2279   -1.5839   21.3732 Cl  0  0  0  0  0  0  0  0  0  0  0  0
   13.5012    0.2199   23.2580 C   0  0  0  0  0  0  0  0  0  0  0  0
   12.5785    0.9017   24.0363 C   0  0  0  0  0  0  0  0  0  0  0  0
   11.2342    0.5961   23.9044 C   0  0  0  0  0  0  0  0  0  0  0  0
   10.2077    1.1455   24.6453 O   0  0  0  0  0  0  0  0  0  0  0  0
    8.9864    0.4518   24.2502 C   0  0  2  0  0  0  0  0  0  0  0  0
    8.6977   -1.7520   22.8050 C   0  0  1  0  0  0  0  0  0  0  0  0
    7.4226   -1.5398   21.9975 C   0  0  1  0  0  0  0  0  0  0  0  0
    7.6811   -0.2949   21.2584 N   0  0  0  0  0  0  0  0  0  0  0  0
    6.8606    0.1088   20.1561 C   0  0  0  0  0  0  0  0  0  0  0  0
    7.1987   -0.1930   18.8407 C   0  0  0  0  0  0  0  0  0  0  0  0
    6.5371    0.2392   17.7583 N   0  0  0  0  0  0  0  0  0  0  0  0
    5.4704    0.9999   17.9582 C   0  0  0  0  0  0  0  0  0  0  0  0
    5.7157    0.9294   20.3756 C   0  0  0  0  0  0  0  0  0  0  0  0
    5.2883    1.3468   21.6604 C   0  0  0  0  0  0  0  0  0  0  0  0
    4.2124    2.1669   21.7590 C   0  0  0  0  0  0  0  0  0  0  0  0
    3.8530    2.6062   22.9907 F   0  0  0  0  0  0  0  0  0  0  0  0
    4.9981    1.3862   19.2361 C   0  0  0  0  0  0  0  0  0  0  0  0
    3.8751    2.2276   19.4245 C   0  0  0  0  0  0  0  0  0  0  0  0
    3.4908    2.6100   20.6745 C   0  0  0  0  0  0  0  0  0  0  0  0
   11.4039   -1.8675   21.5854 H   0  0  0  0  0  0  0  0  0  0  0  0
   14.5536    0.4502   23.3349 H   0  0  0  0  0  0  0  0  0  0  0  0
   12.9028    1.6592   24.7345 H   0  0  0  0  0  0  0  0  0  0  0  0
    8.6720   -0.2393   25.0463 H   0  0  0  0  0  0  0  0  0  0  0  0
    8.1847    1.1805   24.0595 H   0  0  0  0  0  0  0  0  0  0  0  0
    9.3921   -2.4147   22.2676 H   0  0  0  0  0  0  0  0  0  0  0  0
    8.4665   -2.1844   23.7897 H   0  0  0  0  0  0  0  0  0  0  0  0
    7.2520   -2.3783   21.3062 H   0  0  0  0  0  0  0  0  0  0  0  0
    6.5522   -1.4287   22.6609 H   0  0  0  0  0  0  0  0  0  0  0  0
    8.0604   -0.8239   18.6796 H   0  0  0  0  0  0  0  0  0  0  0  0
    4.9270    1.3470   17.0917 H   0  0  0  0  0  0  0  0  0  0  0  0
    5.8105    1.0175   22.5466 H   0  0  0  0  0  0  0  0  0  0  0  0
    3.3161    2.5707   18.5665 H   0  0  0  0  0  0  0  0  0  0  0  0
    2.6328    3.2512   20.8120 H   0  0  0  0  0  0  0  0  0  0  0  0
  1  2  2  0
  3  2  1  6
  2 15  1  0
  3  4  1  0
  3 12  1  0
  3 13  1  0
  4  5  2  0
  4 10  1  0
  5  6  1  0
  5 27  1  0
  6  7  1  0
  6  8  2  0
  8  9  1  0
  8 28  1  0
  9 10  2  0
  9 29  1  0
 10 11  1  0
 11 12  1  0
 12 30  1  1
 12 31  1  0
 13 14  1  0
 13 32  1  6
 13 33  1  0
 14 15  1  0
 14 34  1  6
 14 35  1  0
 15 16  1  0
 16 17  2  0
 16 20  1  0
 17 18  1  0
 17 36  1  0
 18 19  2  0
 19 24  1  0
 19 37  1  0
 20 21  2  0
 20 24  1  0
 21 22  1  0
 21 38  1  0
 22 23  1  0
 22 26  2  0
 24 25  2  0
 25 26  1  0
 25 39  1  0
 26 40  1  0
M  END
$$$$
