LIG(A-306)
     RDKit          3D

 40 42  0  0  1  0  0  0  0  0999 V2000
   14.7045   -1.4194   20.5734 Cl  0  0  0  0  0  0  0  0  0  0  0  0
   13.7627   -0.5560   21.7489 C   0  0  0  0  0  0  0  0  0  0  0  0
   14.2693    0.6029   22.3071 C   0  0  0  0  0  0  0  0  0  0  0  0
   13.4884    1.2961   23.2173 C   0  0  0  0  0  0  0  0  0  0  0  0
   12.2250    0.8290   23.5516 C   0  0  0  0  0  0  0  0  0  0  0  0
   12.5057   -1.0273   22.0673 C   0  0  0  0  0  0  0  0  0  0  0  0
   11.7196   -0.3295   22.9694 C   0  0  0  0  0  0  0  0  0  0  0  0
   10.3241   -0.8726   23.2326 C   0  0  1  0  0  0  0  0  0  0  0  0
   10.2131   -1.4208   24.6500 C   0  0  1  0  0  0  0  0  0  0  0  0
    9.3325    0.2005   23.0054 N   0  0  0  0  0  0  0  0  0  0  0  0
    9.0822    1.1745   24.0696 C   0  0  1  0  0  0  0  0  0  0  0  0
    8.7996    0.3731   21.7809 C   0  0  0  0  0  0  0  0  0  0  0  0
    8.9084    1.4344   21.1890 O   0  0  0  0  0  0  0  0  0  0  0  0
    8.0016   -0.7719   21.1549 C   0  0  1  0  0  0  0  0  0  0  0  0
    7.1859   -0.3005   20.0520 N   0  0  0  0  0  0  0  0  0  0  0  0
    6.0126    0.3958   20.0796 C   0  0  0  0  0  0  0  0  0  0  0  0
    5.7564    0.6860   18.7411 C   0  0  0  0  0  0  0  0  0  0  0  0
    6.7570    0.1369   17.9719 N   0  0  0  0  0  0  0  0  0  0  0  0
    7.6063   -0.4535   18.7711 N   0  0  0  0  0  0  0  0  0  0  0  0
    5.1832    0.8404   21.0972 C   0  0  0  0  0  0  0  0  0  0  0  0
    4.0897    1.6212   20.7480 C   0  0  0  0  0  0  0  0  0  0  0  0
    3.8304    1.9354   19.4149 C   0  0  0  0  0  0  0  0  0  0  0  0
    4.6501    1.4614   18.3990 C   0  0  0  0  0  0  0  0  0  0  0  0
   15.2527    0.9601   22.0393 H   0  0  0  0  0  0  0  0  0  0  0  0
   13.8638    2.2028   23.6682 H   0  0  0  0  0  0  0  0  0  0  0  0
   11.6281    1.3701   24.2709 H   0  0  0  0  0  0  0  0  0  0  0  0
   12.1363   -1.9360   21.6153 H   0  0  0  0  0  0  0  0  0  0  0  0
   10.1311   -1.6937   22.5264 H   0  0  0  0  0  0  0  0  0  0  0  0
    9.1966   -1.8071   24.8158 H   0  0  0  0  0  0  0  0  0  0  0  0
   10.9410   -2.2341   24.7864 H   0  0  0  0  0  0  0  0  0  0  0  0
   10.4219   -0.6170   25.3713 H   0  0  0  0  0  0  0  0  0  0  0  0
    8.3224    1.8964   23.7353 H   0  0  0  0  0  0  0  0  0  0  0  0
    8.7212    0.6517   24.9675 H   0  0  0  0  0  0  0  0  0  0  0  0
   10.0152    1.7072   24.3057 H   0  0  0  0  0  0  0  0  0  0  0  0
    8.7008   -1.5356   20.7834 H   0  0  0  0  0  0  0  0  0  0  0  0
    7.3481   -1.2147   21.9209 H   0  0  0  0  0  0  0  0  0  0  0  0
    5.3812    0.5876   22.1283 H   0  0  0  0  0  0  0  0  0  0  0  0
    3.4307    1.9902   21.5199 H   0  0  0  0  0  0  0  0  0  0  0  0
    2.9811    2.5555   19.1689 H   0  0  0  0  0  0  0  0  0  0  0  0
    4.4348    1.6890   17.3654 H   0  0  0  0  0  0  0  0  0  0  0  0
  1  2  1  0
  2  3  2  0
  2  6  1  0
  3  4  1  0
  3 24  1  0
  4  5  2  0
  4 25  1  0
  5  7  1  0
  5 26  1  0
  6  7  2  0
  6 27  1  0
  7  8  1  0
  8  9  1  0
  8 10  1  0
  8 28  1  6
  9 29  1  1
  9 30  1  0
  9 31  1  0
 10 11  1  0
 10 12  1  0
 11 32  1  6
 11 33  1  0
 11 34  1  0
 12 13  2  0
 12 14  1  0
 14 15  1  0
 14 35  1  6
 14 36  1  0
 15 16  1  0
 15 19  1  0
 16 17  2  0
 16 20  1  0
 17 18  1  0
 17 23  1  0
 18 19  2  0
 20 21  2  0
 20 37  1  0
 21 22  1  0
 21 38  1  0
 22 23  2  0
 22 39  1  0
 23 40  1  0
M  END
$$$$
