LIG(A-306)
     RDKit          3D

 52 56  0  0  1  0  0  0  0  0999 V2000
    6.1344    1.4819   24.5028 O   0  0  0  0  0  0  0  0  0  0  0  0
    7.3814    1.9317   25.0327 S   0  0  2  0  0  0  0  0  0  0  0  0
    7.5380    2.0565   26.4463 O   0  0  0  0  0  0  0  0  0  0  0  0
    7.7760    3.3820   24.4092 N   0  0  0  0  0  0  0  0  0  0  0  0
    7.5301    3.7823   23.0125 C   0  0  2  0  0  0  0  0  0  0  0  0
    7.3814    5.2254   22.7103 C   0  0  1  0  0  0  0  0  0  0  0  0
    6.1992    4.3260   22.6496 C   0  0  1  0  0  0  0  0  0  0  0  0
    8.5255    0.8823   24.6018 N   0  0  0  0  0  0  0  0  0  0  0  0
    9.9279    1.2304   24.8621 C   0  0  1  0  0  0  0  0  0  0  0  0
    8.2748   -0.4936   24.1312 C   0  0  1  0  0  0  0  0  0  0  0  0
    9.0665   -0.8544   22.8763 C   0  0  2  0  0  0  0  0  0  0  0  0
   10.5301   -0.4965   23.0538 C   0  0  0  0  0  0  0  0  0  0  0  0
   10.8996    0.5291   23.9396 C   0  0  0  0  0  0  0  0  0  0  0  0
   12.2376    0.9121   24.0156 C   0  0  0  0  0  0  0  0  0  0  0  0
   13.2038    0.2923   23.2482 C   0  0  0  0  0  0  0  0  0  0  0  0
   11.5173   -1.1420   22.3031 C   0  0  0  0  0  0  0  0  0  0  0  0
   12.8339   -0.7341   22.4124 C   0  0  0  0  0  0  0  0  0  0  0  0
   14.0578   -1.5448   21.4763 Cl  0  0  0  0  0  0  0  0  0  0  0  0
    8.5306   -0.1011   21.6561 C   0  0  0  0  0  0  0  0  0  0  0  0
    9.1029    0.8823   21.1981 O   0  0  0  0  0  0  0  0  0  0  0  0
    7.3744   -0.5916   21.1429 N   0  0  0  0  0  0  0  0  0  0  0  0
    6.6491   -0.0994   20.0296 C   0  0  0  0  0  0  0  0  0  0  0  0
    5.4712    0.6805   20.2635 C   0  0  0  0  0  0  0  0  0  0  0  0
    4.9192    0.9113   21.5503 C   0  0  0  0  0  0  0  0  0  0  0  0
    3.8153    1.7017   21.7095 C   0  0  0  0  0  0  0  0  0  0  0  0
    3.2093    2.3027   20.6125 C   0  0  0  0  0  0  0  0  0  0  0  0
    3.6947    2.1006   19.3525 C   0  0  0  0  0  0  0  0  0  0  0  0
    4.8304    1.2793   19.1402 C   0  0  0  0  0  0  0  0  0  0  0  0
    5.3780    1.0333   17.8557 C   0  0  0  0  0  0  0  0  0  0  0  0
    6.4600    0.2927   17.6382 N   0  0  0  0  0  0  0  0  0  0  0  0
    7.0684   -0.2448   18.7057 C   0  0  0  0  0  0  0  0  0  0  0  0
    7.7072    4.1351   25.0634 H   0  0  0  0  0  0  0  0  0  0  0  0
    8.0294    3.1780   22.2408 H   0  0  0  0  0  0  0  0  0  0  0  0
    7.4668    5.9681   23.5171 H   0  0  0  0  0  0  0  0  0  0  0  0
    7.8053    5.6400   21.7838 H   0  0  0  0  0  0  0  0  0  0  0  0
    5.7481    4.0746   21.6784 H   0  0  0  0  0  0  0  0  0  0  0  0
    5.4096    4.4028   23.4117 H   0  0  0  0  0  0  0  0  0  0  0  0
   10.0474    2.3165   24.7348 H   0  0  0  0  0  0  0  0  0  0  0  0
   10.1695    0.9541   25.8991 H   0  0  0  0  0  0  0  0  0  0  0  0
    8.5529   -1.1934   24.9332 H   0  0  0  0  0  0  0  0  0  0  0  0
    7.2023   -0.5974   23.9097 H   0  0  0  0  0  0  0  0  0  0  0  0
    8.9789   -1.9359   22.6957 H   0  0  0  0  0  0  0  0  0  0  0  0
   12.5239    1.7082   24.6870 H   0  0  0  0  0  0  0  0  0  0  0  0
   14.2347    0.6095   23.3039 H   0  0  0  0  0  0  0  0  0  0  0  0
   11.2531   -1.9541   21.6420 H   0  0  0  0  0  0  0  0  0  0  0  0
    6.9901   -1.3921   21.6030 H   0  0  0  0  0  0  0  0  0  0  0  0
    5.3776    0.4562   22.4158 H   0  0  0  0  0  0  0  0  0  0  0  0
    3.4099    1.8609   22.6978 H   0  0  0  0  0  0  0  0  0  0  0  0
    2.3463    2.9354   20.7581 H   0  0  0  0  0  0  0  0  0  0  0  0
    3.2092    2.5707   18.5100 H   0  0  0  0  0  0  0  0  0  0  0  0
    4.8857    1.4748   17.0018 H   0  0  0  0  0  0  0  0  0  0  0  0
    7.9534   -0.8375   18.5271 H   0  0  0  0  0  0  0  0  0  0  0  0
  1  2  2  0
  2  3  2  0
  2  4  1  6
  2  8  1  0
  4  5  1  0
  4 32  1  0
  5  6  1  0
  5  7  1  0
  5 33  1  6
  6  7  1  0
  6 34  1  1
  6 35  1  0
  7 36  1  6
  7 37  1  0
  8  9  1  0
  8 10  1  0
  9 13  1  0
  9 38  1  1
  9 39  1  0
 10 11  1  0
 10 40  1  1
 10 41  1  0
 11 12  1  0
 11 19  1  0
 11 42  1  6
 12 13  2  0
 12 16  1  0
 13 14  1  0
 14 15  2  0
 14 43  1  0
 15 17  1  0
 15 44  1  0
 16 17  2  0
 16 45  1  0
 17 18  1  0
 19 20  2  0
 19 21  1  0
 21 22  1  0
 21 46  1  0
 22 23  2  0
 22 31  1  0
 23 24  1  0
 23 28  1  0
 24 25  2  0
 24 47  1  0
 25 26  1  0
 25 48  1  0
 26 27  2  0
 26 49  1  0
 27 28  1  0
 27 50  1  0
 28 29  2  0
 29 30  1  0
 29 51  1  0
 30 31  2  0
 31 52  1  0
M  END
$$$$
