LIG(A-305)
     RDKit          3D

 29 30  0  0  0  0  0  0  0  0999 V2000
    9.1854    6.1616   22.6700 C   0  0  1  0  0  0  0  0  0  0  0  0
   10.4665    5.8566   23.4369 C   0  0  0  0  0  0  0  0  0  0  0  0
   12.8565    4.9867   23.3948 C   0  0  1  0  0  0  0  0  0  0  0  0
   13.2305    3.5577   22.9928 C   0  0  1  0  0  0  0  0  0  0  0  0
   12.2415    2.4757   23.4549 C   0  0  0  0  0  0  0  0  0  0  0  0
   11.1186    2.6547   24.2470 C   0  0  0  0  0  0  0  0  0  0  0  0
   11.2156    0.5037   23.7510 C   0  0  0  0  0  0  0  0  0  0  0  0
   10.9836   -0.8913   23.6261 C   0  0  0  0  0  0  0  0  0  0  0  0
   11.8625   -1.6714   22.8791 C   0  0  0  0  0  0  0  0  0  0  0  0
   12.9675   -1.0794   22.2570 C   0  0  0  0  0  0  0  0  0  0  0  0
   13.1935    0.2896   22.3869 C   0  0  0  0  0  0  0  0  0  0  0  0
   12.2995    1.0927   23.1459 C   0  0  0  0  0  0  0  0  0  0  0  0
   13.8324   -1.8364   21.5239 F   0  0  0  0  0  0  0  0  0  0  0  0
   11.6154    5.3236   22.7248 N   0  0  0  0  0  0  0  0  0  0  0  0
   10.5256    1.4797   24.4091 N   0  0  0  0  0  0  0  0  0  0  0  0
   10.5086    6.0447   24.6009 O   0  0  0  0  0  0  0  0  0  0  0  0
    8.4233    6.5433   23.3653 H   0  0  0  0  0  0  0  0  0  0  0  0
    9.3911    6.9193   21.8996 H   0  0  0  0  0  0  0  0  0  0  0  0
    8.8172    5.2423   22.1912 H   0  0  0  0  0  0  0  0  0  0  0  0
   12.7217    5.0459   24.4849 H   0  0  0  0  0  0  0  0  0  0  0  0
   13.6501    5.6826   23.0852 H   0  0  0  0  0  0  0  0  0  0  0  0
   13.2935    3.5168   21.8954 H   0  0  0  0  0  0  0  0  0  0  0  0
   14.2153    3.3277   23.4254 H   0  0  0  0  0  0  0  0  0  0  0  0
   10.7828    3.5933   24.6624 H   0  0  0  0  0  0  0  0  0  0  0  0
   10.1301   -1.3451   24.1078 H   0  0  0  0  0  0  0  0  0  0  0  0
   11.6915   -2.7331   22.7798 H   0  0  0  0  0  0  0  0  0  0  0  0
   14.0503    0.7416   21.9095 H   0  0  0  0  0  0  0  0  0  0  0  0
   11.5479    5.1841   21.7370 H   0  0  0  0  0  0  0  0  0  0  0  0
    9.6885    1.3298   24.9322 H   0  0  0  0  0  0  0  0  0  0  0  0
  1  2  1  0
  1 17  1  1
  1 18  1  0
  1 19  1  0
  2 14  1  0
  2 16  2  0
  3  4  1  0
  3 14  1  0
  3 20  1  1
  3 21  1  0
  4  5  1  0
  4 22  1  6
  4 23  1  0
  5  6  2  0
  5 12  1  0
  6 15  1  0
  6 24  1  0
  7  8  2  0
  7 12  1  0
  7 15  1  0
  8  9  1  0
  8 25  1  0
  9 10  2  0
  9 26  1  0
 10 11  1  0
 10 13  1  0
 11 12  2  0
 11 27  1  0
 14 28  1  0
 15 29  1  0
M  END
$$$$
