LIG(A-306)
     RDKit          3D

 66 69  0  0  1  0  0  0  0  0999 V2000
   -5.5810   -2.4664  -21.4208 O   0  0  0  0  0  0  0  0  0  0  0  0
   -6.7415   -2.7505  -21.6432 C   0  0  0  0  0  0  0  0  0  0  0  0
   -7.0327   -4.2005  -21.8917 C   0  0  0  0  0  0  0  0  0  0  0  0
   -6.0597   -5.1427  -21.5979 N   0  0  0  0  0  0  0  0  0  0  0  0
   -6.5713   -6.2976  -21.9901 C   0  0  0  0  0  0  0  0  0  0  0  0
   -7.7980   -6.1550  -22.5029 N   0  0  0  0  0  0  0  0  0  0  0  0
   -8.1099   -4.8274  -22.4487 C   0  0  0  0  0  0  0  0  0  0  0  0
   -7.6978   -1.7944  -21.7386 N   0  0  0  0  0  0  0  0  0  0  0  0
   -8.9783   -2.0140  -22.3405 C   0  0  0  0  0  0  0  0  0  0  0  0
   -9.0970   -2.0545  -23.7288 C   0  0  0  0  0  0  0  0  0  0  0  0
  -10.3391   -2.2065  -24.3163 C   0  0  0  0  0  0  0  0  0  0  0  0
  -10.1195   -2.1423  -21.5490 C   0  0  0  0  0  0  0  0  0  0  0  0
  -11.3652   -2.2775  -22.1389 C   0  0  0  0  0  0  0  0  0  0  0  0
  -11.4733   -2.2956  -23.5230 C   0  0  0  0  0  0  0  0  0  0  0  0
  -12.6169   -2.3546  -24.2933 O   0  0  0  0  0  0  0  0  0  0  0  0
  -13.9149   -2.5447  -23.6619 C   0  0  2  0  0  0  0  0  0  0  0  0
  -14.7516   -3.2380  -24.7093 C   0  0  1  0  0  0  0  0  0  0  0  0
  -14.4530   -1.1870  -23.2887 C   0  0  1  0  0  0  0  0  0  0  0  0
   -7.3502   -0.3903  -21.3949 C   0  0  2  0  0  0  0  0  0  0  0  0
   -6.6473   -0.1726  -20.0636 C   0  0  0  0  0  0  0  0  0  0  0  0
   -7.1498   -0.6906  -18.8764 C   0  0  0  0  0  0  0  0  0  0  0  0
   -6.7267   -0.3257  -17.6584 N   0  0  0  0  0  0  0  0  0  0  0  0
   -5.7490    0.5844  -17.5954 C   0  0  0  0  0  0  0  0  0  0  0  0
   -5.1528    1.1339  -18.7113 C   0  0  0  0  0  0  0  0  0  0  0  0
   -5.6067    0.7354  -19.9568 C   0  0  0  0  0  0  0  0  0  0  0  0
   -8.4666    0.6436  -21.6272 C   0  0  0  0  0  0  0  0  0  0  0  0
   -9.3306    0.8418  -20.7813 O   0  0  0  0  0  0  0  0  0  0  0  0
   -8.4027    1.3071  -22.7814 N   0  0  0  0  0  0  0  0  0  0  0  0
   -9.3803    2.3277  -23.1343 C   0  0  1  0  0  0  0  0  0  0  0  0
  -10.6507    1.7216  -23.7198 C   0  0  1  0  0  0  0  0  0  0  0  0
  -11.6677    2.7713  -24.1027 C   0  0  0  0  0  0  0  0  0  0  0  0
  -12.7263    3.0642  -23.2504 C   0  0  0  0  0  0  0  0  0  0  0  0
  -13.5962    4.0712  -23.5931 C   0  0  0  0  0  0  0  0  0  0  0  0
  -14.6332    4.3374  -22.7545 F   0  0  0  0  0  0  0  0  0  0  0  0
  -13.4762    4.8135  -24.7385 C   0  0  0  0  0  0  0  0  0  0  0  0
  -12.4305    4.5100  -25.5973 C   0  0  0  0  0  0  0  0  0  0  0  0
  -11.5361    3.4981  -25.2800 C   0  0  0  0  0  0  0  0  0  0  0  0
   -5.1651   -4.9839  -21.1802 H   0  0  0  0  0  0  0  0  0  0  0  0
   -6.0586   -7.2444  -21.9059 H   0  0  0  0  0  0  0  0  0  0  0  0
   -9.0274   -4.3644  -22.7808 H   0  0  0  0  0  0  0  0  0  0  0  0
   -8.2159   -1.9668  -24.3472 H   0  0  0  0  0  0  0  0  0  0  0  0
  -10.4262   -2.2559  -25.3917 H   0  0  0  0  0  0  0  0  0  0  0  0
  -10.0315   -2.1362  -20.4726 H   0  0  0  0  0  0  0  0  0  0  0  0
  -12.2489   -2.3685  -21.5248 H   0  0  0  0  0  0  0  0  0  0  0  0
  -13.8275   -3.1777  -22.7665 H   0  0  0  0  0  0  0  0  0  0  0  0
  -15.7602   -3.4219  -24.3109 H   0  0  0  0  0  0  0  0  0  0  0  0
  -14.8211   -2.6010  -25.6034 H   0  0  0  0  0  0  0  0  0  0  0  0
  -14.2830   -4.1964  -24.9774 H   0  0  0  0  0  0  0  0  0  0  0  0
  -15.4359   -1.3010  -22.8082 H   0  0  0  0  0  0  0  0  0  0  0  0
  -13.7585   -0.6967  -22.5906 H   0  0  0  0  0  0  0  0  0  0  0  0
  -14.5570   -0.5722  -24.1948 H   0  0  0  0  0  0  0  0  0  0  0  0
   -6.5878   -0.1159  -22.1388 H   0  0  0  0  0  0  0  0  0  0  0  0
   -7.9307   -1.4340  -18.9391 H   0  0  0  0  0  0  0  0  0  0  0  0
   -5.4091    0.9053  -16.6218 H   0  0  0  0  0  0  0  0  0  0  0  0
   -4.3543    1.8548  -18.6160 H   0  0  0  0  0  0  0  0  0  0  0  0
   -5.1474    1.1342  -20.8493 H   0  0  0  0  0  0  0  0  0  0  0  0
   -7.6639    1.0987  -23.4222 H   0  0  0  0  0  0  0  0  0  0  0  0
   -9.6421    2.8968  -22.2301 H   0  0  0  0  0  0  0  0  0  0  0  0
   -8.9344    3.0050  -23.8775 H   0  0  0  0  0  0  0  0  0  0  0  0
  -10.3850    1.1436  -24.6172 H   0  0  0  0  0  0  0  0  0  0  0  0
  -11.0995    1.0515  -22.9717 H   0  0  0  0  0  0  0  0  0  0  0  0
  -12.8627    2.5095  -22.3338 H   0  0  0  0  0  0  0  0  0  0  0  0
  -14.1722    5.6078  -24.9648 H   0  0  0  0  0  0  0  0  0  0  0  0
  -12.3120    5.0637  -26.5170 H   0  0  0  0  0  0  0  0  0  0  0  0
  -10.7259    3.2720  -25.9574 H   0  0  0  0  0  0  0  0  0  0  0  0
   -8.3793   -6.8860  -22.8602 H   0  0  0  0  0  0  0  0  0  0  0  0
  1  2  2  0
  2  3  1  0
  2  8  1  0
  3  4  1  0
  3  7  2  0
  4  5  1  0
  4 38  1  0
  5  6  2  0
  5 39  1  0
  6  7  1  0
  6 66  1  0
  7 40  1  0
  8  9  1  0
  8 19  1  0
  9 10  2  0
  9 12  1  0
 10 11  1  0
 10 41  1  0
 11 14  2  0
 11 42  1  0
 12 13  2  0
 12 43  1  0
 13 14  1  0
 13 44  1  0
 14 15  1  0
 15 16  1  0
 16 17  1  0
 16 18  1  0
 16 45  1  1
 17 46  1  1
 17 47  1  0
 17 48  1  0
 18 49  1  1
 18 50  1  0
 18 51  1  0
 19 20  1  0
 19 26  1  0
 19 52  1  6
 20 21  2  0
 20 25  1  0
 21 22  1  0
 21 53  1  0
 22 23  2  0
 23 24  1  0
 23 54  1  0
 24 25  2  0
 24 55  1  0
 25 56  1  0
 26 27  2  0
 26 28  1  0
 28 29  1  0
 28 57  1  0
 29 30  1  0
 29 58  1  1
 29 59  1  0
 30 31  1  0
 30 60  1  6
 30 61  1  0
 31 32  2  0
 31 37  1  0
 32 33  1  0
 32 62  1  0
 33 34  1  0
 33 35  2  0
 35 36  1  0
 35 63  1  0
 36 37  2  0
 36 64  1  0
 37 65  1  0
M  CHG  1   6   1
M  END
$$$$
