LIG(A-306)
     RDKit          3D

 31 33  0  0  0  0  0  0  0  0999 V2000
    8.9180    0.9049   21.4991 O   0  0  0  0  0  0  0  0  0  0  0  0
    8.5661   -0.2341   21.8101 C   0  0  0  0  0  0  0  0  0  0  0  0
    9.2032   -0.9761   22.9710 C   0  0  1  0  0  0  0  0  0  0  0  0
   10.6582   -0.6119   23.1600 C   0  0  0  0  0  0  0  0  0  0  0  0
   11.0311    0.3931   24.0450 C   0  0  0  0  0  0  0  0  0  0  0  0
   12.3520    0.8082   24.1330 C   0  0  0  0  0  0  0  0  0  0  0  0
   13.3211    0.2324   23.3280 C   0  0  0  0  0  0  0  0  0  0  0  0
   11.6402   -1.2228   22.3870 C   0  0  0  0  0  0  0  0  0  0  0  0
   12.9492   -0.7896   22.4750 C   0  0  0  0  0  0  0  0  0  0  0  0
   14.1613   -1.5624   21.4909 Cl  0  0  0  0  0  0  0  0  0  0  0  0
    7.5952   -0.9102   21.1701 N   0  0  0  0  0  0  0  0  0  0  0  0
    6.9161   -0.3703   20.0881 N   0  0  0  0  0  0  0  0  0  0  0  0
    5.8310    0.4326   20.1762 C   0  0  0  0  0  0  0  0  0  0  0  0
    5.6409    0.8426   18.8562 C   0  0  0  0  0  0  0  0  0  0  0  0
    6.6200    0.2707   18.0642 N   0  0  0  0  0  0  0  0  0  0  0  0
    7.3941   -0.4672   18.8151 N   0  0  0  0  0  0  0  0  0  0  0  0
    5.0080    0.8774   21.2042 C   0  0  0  0  0  0  0  0  0  0  0  0
    3.9828    1.7603   20.8853 C   0  0  0  0  0  0  0  0  0  0  0  0
    3.7798    2.1743   19.5673 C   0  0  0  0  0  0  0  0  0  0  0  0
    4.5978    1.7135   18.5423 C   0  0  0  0  0  0  0  0  0  0  0  0
    8.6548   -0.7285   23.8919 H   0  0  0  0  0  0  0  0  0  0  0  0
    9.1317   -2.0572   22.7811 H   0  0  0  0  0  0  0  0  0  0  0  0
   10.2835    0.8564   24.6718 H   0  0  0  0  0  0  0  0  0  0  0  0
   12.6261    1.5841   24.8325 H   0  0  0  0  0  0  0  0  0  0  0  0
   14.3448    0.5745   23.3660 H   0  0  0  0  0  0  0  0  0  0  0  0
   11.3805   -2.0322   21.7209 H   0  0  0  0  0  0  0  0  0  0  0  0
    7.3560   -1.8292   21.4837 H   0  0  0  0  0  0  0  0  0  0  0  0
    5.1605    0.5468   22.2210 H   0  0  0  0  0  0  0  0  0  0  0  0
    3.3355    2.1306   21.6664 H   0  0  0  0  0  0  0  0  0  0  0  0
    2.9774    2.8611   19.3415 H   0  0  0  0  0  0  0  0  0  0  0  0
    4.4287    2.0240   17.5218 H   0  0  0  0  0  0  0  0  0  0  0  0
  1  2  2  0
  2  3  1  0
  2 11  1  0
  3  4  1  0
  3 21  1  1
  3 22  1  0
  4  5  2  0
  4  8  1  0
  5  6  1  0
  5 23  1  0
  6  7  2  0
  6 24  1  0
  7  9  1  0
  7 25  1  0
  8  9  2  0
  8 26  1  0
  9 10  1  0
 11 12  1  0
 11 27  1  0
 12 13  1  0
 12 16  1  0
 13 14  2  0
 13 17  1  0
 14 15  1  0
 14 20  1  0
 15 16  2  0
 17 18  2  0
 17 28  1  0
 18 19  1  0
 18 29  1  0
 19 20  2  0
 19 30  1  0
 20 31  1  0
M  END
$$$$
