LIG(A-305)
     RDKit          3D

 29 30  0  0  1  0  0  0  0  0999 V2000
   10.0736   -0.4896   24.9252 C   0  0  1  0  0  0  0  0  0  0  0  0
   11.8534   -1.6698   23.6760 C   0  0  1  0  0  0  0  0  0  0  0  0
   12.8613   -1.5609   22.5709 C   0  0  1  0  0  0  0  0  0  0  0  0
   13.8175   -0.4120   22.8178 C   0  0  1  0  0  0  0  0  0  0  0  0
   13.0456    0.9211   23.0579 C   0  0  0  0  0  0  0  0  0  0  0  0
   13.6007    2.1520   22.6568 C   0  0  0  0  0  0  0  0  0  0  0  0
   12.8948    3.3391   22.8669 C   0  0  0  0  0  0  0  0  0  0  0  0
   11.6259    3.2762   23.4760 C   0  0  0  0  0  0  0  0  0  0  0  0
   11.0718    2.0633   23.8680 C   0  0  0  0  0  0  0  0  0  0  0  0
   11.7827    0.8662   23.6530 C   0  0  0  0  0  0  0  0  0  0  0  0
   11.2216   -0.4397   24.0531 N   0  0  0  0  0  0  0  0  0  0  0  0
   11.6552    6.1492   23.5159 N   0  0  0  0  0  0  0  0  0  0  0  0
   10.1732    4.6964   25.1451 O   0  0  0  0  0  0  0  0  0  0  0  0
    9.4370    4.8224   23.0101 O   0  0  0  0  0  0  0  0  0  0  0  0
   10.6810    4.7783   23.7810 S   0  0  2  0  0  0  0  0  0  0  0  0
    9.7997   -1.5385   25.1120 H   0  0  0  0  0  0  0  0  0  0  0  0
   10.3165    0.0014   25.8791 H   0  0  0  0  0  0  0  0  0  0  0  0
    9.2291    0.0306   24.4495 H   0  0  0  0  0  0  0  0  0  0  0  0
   11.0687   -2.3695   23.3524 H   0  0  0  0  0  0  0  0  0  0  0  0
   12.3634   -2.0752   24.5623 H   0  0  0  0  0  0  0  0  0  0  0  0
   13.4335   -2.4986   22.5125 H   0  0  0  0  0  0  0  0  0  0  0  0
   12.3352   -1.3927   21.6198 H   0  0  0  0  0  0  0  0  0  0  0  0
   14.4284   -0.6376   23.7043 H   0  0  0  0  0  0  0  0  0  0  0  0
   14.4720   -0.2951   21.9415 H   0  0  0  0  0  0  0  0  0  0  0  0
   14.5727    2.1781   22.1866 H   0  0  0  0  0  0  0  0  0  0  0  0
   13.3144    4.2882   22.5676 H   0  0  0  0  0  0  0  0  0  0  0  0
   10.0989    2.0386   24.3363 H   0  0  0  0  0  0  0  0  0  0  0  0
   11.7151    6.6842   24.3587 H   0  0  0  0  0  0  0  0  0  0  0  0
   12.3406    5.9417   22.8180 H   0  0  0  0  0  0  0  0  0  0  0  0
  1 11  1  0
  1 16  1  1
  1 17  1  0
  1 18  1  0
  2  3  1  0
  2 11  1  0
  2 19  1  6
  2 20  1  0
  3  4  1  0
  3 21  1  6
  3 22  1  0
  4  5  1  0
  4 23  1  1
  4 24  1  0
  5  6  2  0
  5 10  1  0
  6  7  1  0
  6 25  1  0
  7  8  2  0
  7 26  1  0
  8  9  1  0
  8 15  1  0
  9 10  2  0
  9 27  1  0
 10 11  1  0
 15 12  1  1
 12 28  1  0
 12 29  1  0
 13 15  2  0
 14 15  2  0
M  END
$$$$
