LIG(A-305)
     RDKit          3D

 40 42  0  0  1  0  0  0  0  0999 V2000
    6.5303    0.6116   17.2909 N   0  0  0  0  0  0  0  0  0  0  0  0
   11.9086    4.7314   22.2556 N   0  0  0  0  0  0  0  0  0  0  0  0
    5.5008    0.7860   19.8981 C   0  0  0  0  0  0  0  0  0  0  0  0
   13.2192    0.5673   22.7207 C   0  0  0  0  0  0  0  0  0  0  0  0
   12.5506    2.7205   23.5247 O   0  0  0  0  0  0  0  0  0  0  0  0
   10.5291   -0.1814   22.6443 C   0  0  0  0  0  0  0  0  0  0  0  0
    4.8796    1.4240   18.8282 C   0  0  0  0  0  0  0  0  0  0  0  0
   10.8944    1.0736   23.1201 C   0  0  0  0  0  0  0  0  0  0  0  0
    8.4679    0.1727   21.2646 C   0  0  0  0  0  0  0  0  0  0  0  0
    6.6736    0.0518   19.6219 C   0  0  0  0  0  0  0  0  0  0  0  0
    7.1324   -0.0133   18.3079 C   0  0  0  0  0  0  0  0  0  0  0  0
   12.8165    3.5493   22.3835 C   0  0  2  0  0  0  0  0  0  0  0  0
   12.8390   -0.6847   22.2819 C   0  0  0  0  0  0  0  0  0  0  0  0
   11.5160   -1.0695   22.2362 C   0  0  0  0  0  0  0  0  0  0  0  0
   12.2294    1.4415   23.1368 C   0  0  0  0  0  0  0  0  0  0  0  0
   13.8977    4.5482   22.8073 C   0  0  1  0  0  0  0  0  0  0  0  0
    4.9600    0.9372   21.2972 C   0  0  1  0  0  0  0  0  0  0  0  0
    7.4378   -0.4822   20.6859 N   0  0  0  0  0  0  0  0  0  0  0  0
    8.8790    1.2617   20.8774 O   0  0  0  0  0  0  0  0  0  0  0  0
   13.0268    6.7713   21.9322 O   0  0  0  0  0  0  0  0  0  0  0  0
    9.0701   -0.5302   22.4656 C   0  0  2  0  0  0  0  0  0  0  0  0
    5.4254    1.3188   17.5641 C   0  0  0  0  0  0  0  0  0  0  0  0
   12.9378    5.5983   22.2773 C   0  0  0  0  0  0  0  0  0  0  0  0
   14.0668   -1.8269   21.8168 Cl  0  0  0  0  0  0  0  0  0  0  0  0
   10.9169    4.8370   22.1821 H   0  0  0  0  0  0  0  0  0  0  0  0
   14.2595    0.8570   22.7390 H   0  0  0  0  0  0  0  0  0  0  0  0
    3.9777    1.9969   18.9855 H   0  0  0  0  0  0  0  0  0  0  0  0
   10.1391    1.7590   23.4754 H   0  0  0  0  0  0  0  0  0  0  0  0
    8.0172   -0.5970   18.1009 H   0  0  0  0  0  0  0  0  0  0  0  0
   13.0293    3.0227   21.4414 H   0  0  0  0  0  0  0  0  0  0  0  0
   11.2486   -2.0553   21.8853 H   0  0  0  0  0  0  0  0  0  0  0  0
   14.0949    4.5957   23.8884 H   0  0  0  0  0  0  0  0  0  0  0  0
   14.8507    4.4668   22.2639 H   0  0  0  0  0  0  0  0  0  0  0  0
    4.0725    1.5867   21.2796 H   0  0  0  0  0  0  0  0  0  0  0  0
    4.6830   -0.0515   21.6919 H   0  0  0  0  0  0  0  0  0  0  0  0
    5.7303    1.3864   21.9413 H   0  0  0  0  0  0  0  0  0  0  0  0
    7.2031   -1.3922   21.0275 H   0  0  0  0  0  0  0  0  0  0  0  0
    8.5185   -0.2291   23.3683 H   0  0  0  0  0  0  0  0  0  0  0  0
    8.9781   -1.6173   22.3253 H   0  0  0  0  0  0  0  0  0  0  0  0
    4.9351    1.8345   16.7515 H   0  0  0  0  0  0  0  0  0  0  0  0
  1 11  1  0
  1 22  2  0
  2 12  1  0
  2 23  1  0
  2 25  1  0
  3  7  2  0
  3 10  1  0
  3 17  1  0
  4 13  1  0
  4 15  2  0
  4 26  1  0
  5 12  1  0
  5 15  1  0
  6  8  2  0
  6 14  1  0
  6 21  1  0
  7 22  1  0
  7 27  1  0
  8 15  1  0
  8 28  1  0
  9 18  1  0
  9 19  2  0
  9 21  1  0
 10 11  2  0
 10 18  1  0
 11 29  1  0
 12 16  1  0
 12 30  1  6
 13 14  2  0
 13 24  1  0
 14 31  1  0
 16 23  1  0
 16 32  1  1
 16 33  1  0
 17 34  1  6
 17 35  1  0
 17 36  1  0
 18 37  1  0
 20 23  2  0
 21 38  1  1
 21 39  1  0
 22 40  1  0
M  END
$$$$
