LIG(A-306)
     RDKit          3D

 47 51  0  0  1  0  0  0  0  0999 V2000
    9.3567    1.2549   21.1715 O   0  0  0  0  0  0  0  0  0  0  0  0
    8.9097    0.2979   21.7801 C   0  0  0  0  0  0  0  0  0  0  0  0
    9.6136   -0.2193   23.0339 C   0  0  2  0  0  0  0  0  0  0  0  0
    8.9805    0.4982   24.2502 C   0  0  1  0  0  0  0  0  0  0  0  0
    9.5182    1.8985   24.4414 C   0  0  1  0  0  0  0  0  0  0  0  0
   10.9643    1.8741   24.5030 N   0  0  0  0  0  0  0  0  0  0  0  0
   11.1280    0.0378   22.9501 C   0  0  0  0  0  0  0  0  0  0  0  0
   11.7083    1.1126   23.6420 C   0  0  0  0  0  0  0  0  0  0  0  0
   13.0577    1.4108   23.4629 C   0  0  0  0  0  0  0  0  0  0  0  0
   13.8317    0.6494   22.6069 C   0  0  0  0  0  0  0  0  0  0  0  0
   11.9261   -0.7535   22.1222 C   0  0  0  0  0  0  0  0  0  0  0  0
   13.2594   -0.4242   21.9550 C   0  0  0  0  0  0  0  0  0  0  0  0
   14.2248   -1.3514   20.8409 Cl  0  0  0  0  0  0  0  0  0  0  0  0
    7.7402   -0.3108   21.3988 N   0  0  0  0  0  0  0  0  0  0  0  0
    7.4014   -1.7080   21.7126 C   0  0  1  0  0  0  0  0  0  0  0  0
    7.9170   -2.1161   23.0758 C   0  0  1  0  0  0  0  0  0  0  0  0
    9.3850   -1.7370   23.2173 C   0  0  2  0  0  0  0  0  0  0  0  0
    7.0055    0.1549   20.2572 C   0  0  0  0  0  0  0  0  0  0  0  0
    5.8276    0.9508   20.3899 C   0  0  0  0  0  0  0  0  0  0  0  0
    5.2883    1.3667   21.6357 C   0  0  0  0  0  0  0  0  0  0  0  0
    4.1664    2.1454   21.6916 C   0  0  0  0  0  0  0  0  0  0  0  0
    3.5258    2.5472   20.5294 C   0  0  0  0  0  0  0  0  0  0  0  0
    4.0041    2.1723   19.3053 C   0  0  0  0  0  0  0  0  0  0  0  0
    5.1650    1.3684   19.1987 C   0  0  0  0  0  0  0  0  0  0  0  0
    5.7203    0.9716   17.9578 C   0  0  0  0  0  0  0  0  0  0  0  0
    6.8140    0.2315   17.8378 N   0  0  0  0  0  0  0  0  0  0  0  0
    7.4216   -0.1625   18.9659 C   0  0  0  0  0  0  0  0  0  0  0  0
    7.8926    0.5560   24.0986 H   0  0  0  0  0  0  0  0  0  0  0  0
    9.1939   -0.0883   25.1560 H   0  0  0  0  0  0  0  0  0  0  0  0
    9.2009    2.5281   23.5971 H   0  0  0  0  0  0  0  0  0  0  0  0
    9.1215    2.3152   25.3790 H   0  0  0  0  0  0  0  0  0  0  0  0
   11.3894    2.7363   24.7786 H   0  0  0  0  0  0  0  0  0  0  0  0
   13.5006    2.2399   23.9947 H   0  0  0  0  0  0  0  0  0  0  0  0
   14.8724    0.8919   22.4501 H   0  0  0  0  0  0  0  0  0  0  0  0
   11.5078   -1.6123   21.6183 H   0  0  0  0  0  0  0  0  0  0  0  0
    6.3075   -1.8218   21.6964 H   0  0  0  0  0  0  0  0  0  0  0  0
    7.8496   -2.3632   20.9511 H   0  0  0  0  0  0  0  0  0  0  0  0
    7.3325   -1.6033   23.8539 H   0  0  0  0  0  0  0  0  0  0  0  0
    7.8096   -3.2045   23.1941 H   0  0  0  0  0  0  0  0  0  0  0  0
    9.7319   -2.0294   24.2194 H   0  0  0  0  0  0  0  0  0  0  0  0
    9.9661   -2.2778   22.4559 H   0  0  0  0  0  0  0  0  0  0  0  0
    5.7716    1.0634   22.5527 H   0  0  0  0  0  0  0  0  0  0  0  0
    3.7750    2.4509   22.6506 H   0  0  0  0  0  0  0  0  0  0  0  0
    2.6404    3.1624   20.5921 H   0  0  0  0  0  0  0  0  0  0  0  0
    3.4914    2.4922   18.4103 H   0  0  0  0  0  0  0  0  0  0  0  0
    5.2226    1.2911   17.0541 H   0  0  0  0  0  0  0  0  0  0  0  0
    8.3051   -0.7756   18.8658 H   0  0  0  0  0  0  0  0  0  0  0  0
  1  2  2  0
  3  2  1  6
  2 14  1  0
  3  4  1  0
  3  7  1  0
  3 17  1  0
  4  5  1  0
  4 28  1  6
  4 29  1  0
  5  6  1  0
  5 30  1  6
  5 31  1  0
  6  8  1  0
  6 32  1  0
  7  8  1  0
  7 11  2  0
  8  9  2  0
  9 10  1  0
  9 33  1  0
 10 12  2  0
 10 34  1  0
 11 12  1  0
 11 35  1  0
 12 13  1  0
 14 15  1  0
 14 18  1  0
 15 16  1  0
 15 36  1  1
 15 37  1  0
 16 17  1  0
 16 38  1  1
 16 39  1  0
 17 40  1  1
 17 41  1  0
 18 19  2  0
 18 27  1  0
 19 20  1  0
 19 24  1  0
 20 21  2  0
 20 42  1  0
 21 22  1  0
 21 43  1  0
 22 23  2  0
 22 44  1  0
 23 24  1  0
 23 45  1  0
 24 25  2  0
 25 26  1  0
 25 46  1  0
 26 27  2  0
 27 47  1  0
M  END
$$$$
