LIG(A-305)
     RDKit          3D

 53 54  0  0  1  0  0  0  0  0999 V2000
    9.0393    1.2768   21.0834 O   0  0  0  0  0  0  0  0  0  0  0  0
    8.0815    1.0509   21.8195 C   0  0  0  0  0  0  0  0  0  0  0  0
    7.8486    1.7029   22.9525 N   0  0  0  0  0  0  0  0  0  0  0  0
    8.7837    2.6780   23.4823 C   0  0  1  0  0  0  0  0  0  0  0  0
    7.0294   -0.0131   21.4677 C   0  0  1  0  0  0  0  0  0  0  0  0
    6.3852    0.2508   20.1168 C   0  0  0  0  0  0  0  0  0  0  0  0
    5.2552    1.0488   20.0179 C   0  0  0  0  0  0  0  0  0  0  0  0
    4.8230    1.4897   18.7830 C   0  0  0  0  0  0  0  0  0  0  0  0
    5.5438    1.1107   17.6649 C   0  0  0  0  0  0  0  0  0  0  0  0
    6.6179    0.3177   17.7178 N   0  0  0  0  0  0  0  0  0  0  0  0
    7.0040   -0.1083   18.9257 C   0  0  0  0  0  0  0  0  0  0  0  0
    7.5094   -1.3831   21.7837 N   0  0  0  0  0  0  0  0  0  0  0  0
    6.7004   -2.4411   21.4789 C   0  0  0  0  0  0  0  0  0  0  0  0
    5.5344   -2.2851   21.1660 O   0  0  0  0  0  0  0  0  0  0  0  0
    7.2934   -3.8241   21.4969 C   0  0  1  0  0  0  0  0  0  0  0  0
    7.1572   -4.4832   20.1459 C   0  0  1  0  0  0  0  0  0  0  0  0
    8.7665   -1.5631   22.4475 C   0  0  0  0  0  0  0  0  0  0  0  0
    8.8247   -1.6130   23.8385 C   0  0  0  0  0  0  0  0  0  0  0  0
   10.0458   -1.7430   24.4794 C   0  0  0  0  0  0  0  0  0  0  0  0
   11.2337   -1.8190   23.7562 C   0  0  0  0  0  0  0  0  0  0  0  0
   12.5808   -1.8810   24.4890 C   0  0  1  0  0  0  0  0  0  0  0  0
   12.6210   -3.0559   25.4850 C   0  0  1  0  0  0  0  0  0  0  0  0
   13.7597   -2.0430   23.5278 C   0  0  1  0  0  0  0  0  0  0  0  0
   12.7900   -0.5749   25.2509 C   0  0  1  0  0  0  0  0  0  0  0  0
   11.1605   -1.7831   22.3652 C   0  0  0  0  0  0  0  0  0  0  0  0
    9.9464   -1.6581   21.7144 C   0  0  0  0  0  0  0  0  0  0  0  0
    7.0045    1.5168   23.4552 H   0  0  0  0  0  0  0  0  0  0  0  0
    8.3901    3.0907   24.4230 H   0  0  0  0  0  0  0  0  0  0  0  0
    9.7519    2.1918   23.6722 H   0  0  0  0  0  0  0  0  0  0  0  0
    8.9182    3.4906   22.7533 H   0  0  0  0  0  0  0  0  0  0  0  0
    6.2195    0.1666   22.1901 H   0  0  0  0  0  0  0  0  0  0  0  0
    4.7119    1.3260   20.9092 H   0  0  0  0  0  0  0  0  0  0  0  0
    3.9461    2.1135   18.6924 H   0  0  0  0  0  0  0  0  0  0  0  0
    5.2221    1.4742   16.7001 H   0  0  0  0  0  0  0  0  0  0  0  0
    7.8522   -0.7748   18.9785 H   0  0  0  0  0  0  0  0  0  0  0  0
    8.3595   -3.7560   21.7591 H   0  0  0  0  0  0  0  0  0  0  0  0
    6.7689   -4.4317   22.2491 H   0  0  0  0  0  0  0  0  0  0  0  0
    7.5967   -5.4909   20.1830 H   0  0  0  0  0  0  0  0  0  0  0  0
    6.0925   -4.5572   19.8799 H   0  0  0  0  0  0  0  0  0  0  0  0
    7.6831   -3.8816   19.3899 H   0  0  0  0  0  0  0  0  0  0  0  0
    7.9158   -1.5503   24.4185 H   0  0  0  0  0  0  0  0  0  0  0  0
   10.0773   -1.7861   25.5581 H   0  0  0  0  0  0  0  0  0  0  0  0
   13.5965   -3.0735   25.9930 H   0  0  0  0  0  0  0  0  0  0  0  0
   11.8217   -2.9319   26.2306 H   0  0  0  0  0  0  0  0  0  0  0  0
   12.4731   -4.0015   24.9427 H   0  0  0  0  0  0  0  0  0  0  0  0
   14.6979   -2.0820   24.1008 H   0  0  0  0  0  0  0  0  0  0  0  0
   13.6407   -2.9750   22.9556 H   0  0  0  0  0  0  0  0  0  0  0  0
   13.7882   -1.1888   22.8355 H   0  0  0  0  0  0  0  0  0  0  0  0
   13.7536   -0.6089   25.7803 H   0  0  0  0  0  0  0  0  0  0  0  0
   12.7903    0.2666   24.5426 H   0  0  0  0  0  0  0  0  0  0  0  0
   11.9764   -0.4410   25.9790 H   0  0  0  0  0  0  0  0  0  0  0  0
   12.0684   -1.8541   21.7846 H   0  0  0  0  0  0  0  0  0  0  0  0
    9.9136   -1.6342   20.6352 H   0  0  0  0  0  0  0  0  0  0  0  0
  1  2  2  0
  2  3  1  0
  2  5  1  0
  3  4  1  0
  3 27  1  0
  4 28  1  1
  4 29  1  0
  4 30  1  0
  5  6  1  0
  5 12  1  0
  5 31  1  1
  6  7  2  0
  6 11  1  0
  7  8  1  0
  7 32  1  0
  8  9  2  0
  8 33  1  0
  9 10  1  0
  9 34  1  0
 10 11  2  0
 11 35  1  0
 12 13  1  0
 12 17  1  0
 13 14  2  0
 13 15  1  0
 15 16  1  0
 15 36  1  1
 15 37  1  0
 16 38  1  1
 16 39  1  0
 16 40  1  0
 17 18  2  0
 17 26  1  0
 18 19  1  0
 18 41  1  0
 19 20  2  0
 19 42  1  0
 21 20  1  6
 20 25  1  0
 21 22  1  0
 21 23  1  0
 21 24  1  0
 22 43  1  1
 22 44  1  0
 22 45  1  0
 23 46  1  1
 23 47  1  0
 23 48  1  0
 24 49  1  1
 24 50  1  0
 24 51  1  0
 25 26  2  0
 25 52  1  0
 26 53  1  0
M  END
$$$$
