LIG(A-305)
     RDKit          3D

 35 36  0  0  0  0  0  0  0  0999 V2000
    5.7072   -3.7514   23.7258 N   0  0  0  0  0  0  0  0  0  0  0  0
    1.4761   -2.4458   28.2975 C   0  0  1  0  0  0  0  0  0  0  0  0
    2.8971   -2.3250   28.3003 O   0  0  0  0  0  0  0  0  0  0  0  0
    3.5779   -2.6891   27.1682 C   0  0  0  0  0  0  0  0  0  0  0  0
    6.6282   -2.7866   23.0927 C   0  0  1  0  0  0  0  0  0  0  0  0
    6.4975   -4.2365   19.9527 C   0  0  0  0  0  0  0  0  0  0  0  0
    7.0526   -3.0865   19.1496 C   0  0  1  0  0  0  0  0  0  0  0  0
    3.0696   -3.6380   26.2932 C   0  0  0  0  0  0  0  0  0  0  0  0
    3.7804   -3.9831   25.1591 C   0  0  0  0  0  0  0  0  0  0  0  0
    5.0184   -3.4023   24.8759 C   0  0  0  0  0  0  0  0  0  0  0  0
    5.5107   -2.4434   25.7649 C   0  0  0  0  0  0  0  0  0  0  0  0
    4.8030   -2.0933   26.9010 C   0  0  0  0  0  0  0  0  0  0  0  0
    5.4248   -5.0483   23.0828 C   0  0  1  0  0  0  0  0  0  0  0  0
    6.4616   -5.4885   22.0727 C   0  0  1  0  0  0  0  0  0  0  0  0
    7.5710   -3.3917   22.0776 C   0  0  1  0  0  0  0  0  0  0  0  0
    6.8517   -4.3516   21.2526 N   0  0  0  0  0  0  0  0  0  0  0  0
    5.7443   -5.0363   19.4128 O   0  0  0  0  0  0  0  0  0  0  0  0
    1.0778   -2.1177   29.2690 H   0  0  0  0  0  0  0  0  0  0  0  0
    1.0564   -1.8174   27.4982 H   0  0  0  0  0  0  0  0  0  0  0  0
    1.1978   -3.4955   28.1229 H   0  0  0  0  0  0  0  0  0  0  0  0
    6.0257   -2.0181   22.5864 H   0  0  0  0  0  0  0  0  0  0  0  0
    7.2311   -2.3173   23.8841 H   0  0  0  0  0  0  0  0  0  0  0  0
    6.6703   -3.1396   18.1196 H   0  0  0  0  0  0  0  0  0  0  0  0
    6.7416   -2.1359   19.6074 H   0  0  0  0  0  0  0  0  0  0  0  0
    8.1510   -3.1451   19.1365 H   0  0  0  0  0  0  0  0  0  0  0  0
    2.1186   -4.1071   26.4982 H   0  0  0  0  0  0  0  0  0  0  0  0
    3.3706   -4.7155   24.4794 H   0  0  0  0  0  0  0  0  0  0  0  0
    6.4589   -1.9679   25.5620 H   0  0  0  0  0  0  0  0  0  0  0  0
    5.2039   -1.3559   27.5806 H   0  0  0  0  0  0  0  0  0  0  0  0
    5.3643   -5.8153   23.8690 H   0  0  0  0  0  0  0  0  0  0  0  0
    4.4552   -4.9729   22.5689 H   0  0  0  0  0  0  0  0  0  0  0  0
    7.3439   -5.8807   22.5996 H   0  0  0  0  0  0  0  0  0  0  0  0
    6.0380   -6.2753   21.4312 H   0  0  0  0  0  0  0  0  0  0  0  0
    7.9811   -2.5955   21.4390 H   0  0  0  0  0  0  0  0  0  0  0  0
    8.3931   -3.9024   22.6005 H   0  0  0  0  0  0  0  0  0  0  0  0
  1  5  1  0
  1 10  1  0
  1 13  1  0
  2  3  1  0
  2 18  1  1
  2 19  1  0
  2 20  1  0
  3  4  1  0
  4  8  2  0
  4 12  1  0
  5 15  1  0
  5 21  1  6
  5 22  1  0
  6  7  1  0
  6 16  1  0
  6 17  2  0
  7 23  1  6
  7 24  1  0
  7 25  1  0
  8  9  1  0
  8 26  1  0
  9 10  2  0
  9 27  1  0
 10 11  1  0
 11 12  2  0
 11 28  1  0
 12 29  1  0
 13 14  1  0
 13 30  1  1
 13 31  1  0
 14 16  1  0
 14 32  1  1
 14 33  1  0
 15 16  1  0
 15 34  1  6
 15 35  1  0
M  END
$$$$
