LIG(A-305)
     RDKit          3D

 42 43  0  0  1  0  0  0  0  0999 V2000
    6.7082   -5.3476   21.8772 S   0  0  2  0  0  0  0  0  0  0  0  0
    7.6153   -4.0286   22.1102 N   0  0  0  0  0  0  0  0  0  0  0  0
    6.7823    0.5383   17.6121 N   0  0  0  0  0  0  0  0  0  0  0  0
    7.8453   -3.5236   23.4731 C   0  0  1  0  0  0  0  0  0  0  0  0
   12.0024   -1.3058   21.9810 C   0  0  0  0  0  0  0  0  0  0  0  0
    6.3182   -5.3456   20.4992 O   0  0  0  0  0  0  0  0  0  0  0  0
    5.6653    1.0594   18.1381 C   0  0  0  0  0  0  0  0  0  0  0  0
    9.1354   -2.7297   23.6541 C   0  0  1  0  0  0  0  0  0  0  0  0
    6.2934    0.4454   20.3501 C   0  0  0  0  0  0  0  0  0  0  0  0
    7.4573   -0.1137   19.8311 C   0  0  0  0  0  0  0  0  0  0  0  0
    8.4744   -0.9547   21.9671 C   0  0  0  0  0  0  0  0  0  0  0  0
   10.8484   -1.1017   22.7320 C   0  0  0  0  0  0  0  0  0  0  0  0
   13.1504    0.4052   23.2120 C   0  0  0  0  0  0  0  0  0  0  0  0
    7.6523   -0.0377   18.4521 C   0  0  0  0  0  0  0  0  0  0  0  0
   13.1444   -0.5558   22.2170 C   0  0  0  0  0  0  0  0  0  0  0  0
   12.0145    0.6093   23.9740 C   0  0  0  0  0  0  0  0  0  0  0  0
    5.2673   -5.1756   22.8582 C   0  0  1  0  0  0  0  0  0  0  0  0
    8.4373   -0.7677   20.6231 N   0  0  0  0  0  0  0  0  0  0  0  0
    7.4572   -6.4576   22.3792 O   0  0  0  0  0  0  0  0  0  0  0  0
    7.6864   -0.4276   22.7511 O   0  0  0  0  0  0  0  0  0  0  0  0
    5.3804    1.0374   19.4921 C   0  0  0  0  0  0  0  0  0  0  0  0
    9.5823   -1.8967   22.4401 C   0  0  1  0  0  0  0  0  0  0  0  0
   10.8714   -0.1437   23.7380 C   0  0  0  0  0  0  0  0  0  0  0  0
    7.5581   -3.3323   21.3947 H   0  0  0  0  0  0  0  0  0  0  0  0
    7.0018   -2.8712   23.7429 H   0  0  0  0  0  0  0  0  0  0  0  0
    7.8755   -4.3852   24.1563 H   0  0  0  0  0  0  0  0  0  0  0  0
   12.0082   -2.0572   21.2053 H   0  0  0  0  0  0  0  0  0  0  0  0
    4.9512    1.5199   17.4714 H   0  0  0  0  0  0  0  0  0  0  0  0
    8.9933   -2.0427   24.5014 H   0  0  0  0  0  0  0  0  0  0  0  0
    9.9400   -3.4416   23.8902 H   0  0  0  0  0  0  0  0  0  0  0  0
    6.1032    0.4180   21.4129 H   0  0  0  0  0  0  0  0  0  0  0  0
   14.0379    0.9934   23.3928 H   0  0  0  0  0  0  0  0  0  0  0  0
    8.5535   -0.4665   18.0393 H   0  0  0  0  0  0  0  0  0  0  0  0
   14.0309   -0.7222   21.6229 H   0  0  0  0  0  0  0  0  0  0  0  0
   12.0162    1.3559   24.7544 H   0  0  0  0  0  0  0  0  0  0  0  0
    4.6243   -6.0580   22.7243 H   0  0  0  0  0  0  0  0  0  0  0  0
    5.5529   -5.0873   23.9168 H   0  0  0  0  0  0  0  0  0  0  0  0
    4.7195   -4.2728   22.5498 H   0  0  0  0  0  0  0  0  0  0  0  0
    9.2130   -1.1455   20.1175 H   0  0  0  0  0  0  0  0  0  0  0  0
    4.4672    1.4717   19.8714 H   0  0  0  0  0  0  0  0  0  0  0  0
    9.8036   -2.5946   21.6191 H   0  0  0  0  0  0  0  0  0  0  0  0
    9.9912    0.0172   24.3429 H   0  0  0  0  0  0  0  0  0  0  0  0
  1  2  1  6
  1  6  2  0
  1 17  1  0
  1 19  2  0
  2  4  1  0
  2 24  1  0
  3  7  2  0
  3 14  1  0
  4  8  1  0
  4 25  1  1
  4 26  1  0
  5 12  2  0
  5 15  1  0
  5 27  1  0
  7 21  1  0
  7 28  1  0
  8 22  1  0
  8 29  1  1
  8 30  1  0
  9 10  1  0
  9 21  2  0
  9 31  1  0
 10 14  2  0
 10 18  1  0
 11 18  1  0
 11 20  2  0
 11 22  1  0
 12 22  1  0
 12 23  1  0
 13 15  2  0
 13 16  1  0
 13 32  1  0
 14 33  1  0
 15 34  1  0
 16 23  2  0
 16 35  1  0
 17 36  1  1
 17 37  1  0
 17 38  1  0
 18 39  1  0
 21 40  1  0
 22 41  1  6
 23 42  1  0
M  END
$$$$
