LIG(A-703)
     RDKit          3D

 15 15  0  0  0  0  0  0  0  0999 V2000
   16.4829   30.0357   -6.7179 C   0  0  0  0  0  0  0  0  0  0  0  0
   15.3886   29.7191   -5.7389 C   0  0  0  0  0  0  0  0  0  0  0  0
   14.9664   28.4095   -5.5120 C   0  0  0  0  0  0  0  0  0  0  0  0
   13.9599   28.1708   -4.5935 C   0  0  0  0  0  0  0  0  0  0  0  0
   13.7180   30.3957   -4.1679 C   0  0  0  0  0  0  0  0  0  0  0  0
   14.7334   30.7367   -5.0619 C   0  0  0  0  0  0  0  0  0  0  0  0
   17.4186   30.9056   -6.3549 N   0  0  0  0  0  0  0  0  0  0  0  0
   13.3418   29.1534   -3.9234 N   0  0  0  0  0  0  0  0  0  0  0  0
   16.4716   29.5122   -7.8440 O   0  0  0  0  0  0  0  0  0  0  0  0
   12.9096   31.6562   -3.2861 Cl  0  0  0  0  0  0  0  0  0  0  0  0
   15.4209   27.5895   -6.0482 H   0  0  0  0  0  0  0  0  0  0  0  0
   13.6596   27.1499   -4.4086 H   0  0  0  0  0  0  0  0  0  0  0  0
   15.0030   31.7700   -5.2232 H   0  0  0  0  0  0  0  0  0  0  0  0
   18.1432   31.1573   -6.9965 H   0  0  0  0  0  0  0  0  0  0  0  0
   17.3984   31.3089   -5.4401 H   0  0  0  0  0  0  0  0  0  0  0  0
  1  2  1  0
  1  7  1  0
  1  9  2  0
  2  3  2  0
  2  6  1  0
  3  4  1  0
  3 11  1  0
  4  8  2  0
  4 12  1  0
  5  6  2  0
  5  8  1  0
  5 10  1  0
  6 13  1  0
  7 14  1  0
  7 15  1  0
M  END
$$$$
