LIG(A-305)
     RDKit          3D

 38 40  0  0  0  0  0  0  0  0999 V2000
    8.7245    1.4503   21.2776 O   0  0  0  0  0  0  0  0  0  0  0  0
    8.3964    0.2683   21.3367 C   0  0  0  0  0  0  0  0  0  0  0  0
    8.9005   -0.6447   22.4366 C   0  0  1  0  0  0  0  0  0  0  0  0
   10.3786   -0.4568   22.6923 C   0  0  0  0  0  0  0  0  0  0  0  0
   10.8318    0.5092   23.5822 C   0  0  0  0  0  0  0  0  0  0  0  0
   12.1859    0.7741   23.7159 C   0  0  0  0  0  0  0  0  0  0  0  0
   13.1117    0.0640   22.9687 C   0  0  0  0  0  0  0  0  0  0  0  0
   11.3114   -1.1919   21.9682 C   0  0  0  0  0  0  0  0  0  0  0  0
   12.6584   -0.9260   22.1209 C   0  0  0  0  0  0  0  0  0  0  0  0
   13.8131   -1.8982   21.2507 Cl  0  0  0  0  0  0  0  0  0  0  0  0
    7.6501   -0.3427   20.3959 N   0  0  0  0  0  0  0  0  0  0  0  0
    6.6380    0.0724   19.4991 C   0  0  0  0  0  0  0  0  0  0  0  0
    5.6541    1.0225   19.8322 C   0  0  0  0  0  0  0  0  0  0  0  0
    4.9970    1.6815   18.7943 C   0  0  0  0  0  0  0  0  0  0  0  0
    5.3577    1.3874   17.4952 C   0  0  0  0  0  0  0  0  0  0  0  0
    6.2835    0.4843   17.1641 N   0  0  0  0  0  0  0  0  0  0  0  0
    6.8847   -0.1757   18.1560 C   0  0  0  0  0  0  0  0  0  0  0  0
    5.2224    1.3316   21.2233 C   0  0  0  0  0  0  0  0  0  0  0  0
    4.9556    2.6497   21.6013 C   0  0  0  0  0  0  0  0  0  0  0  0
    4.3779    2.9308   22.8304 C   0  0  0  0  0  0  0  0  0  0  0  0
    4.0720    1.9059   23.7045 C   0  0  0  0  0  0  0  0  0  0  0  0
    4.3478    0.5978   23.3535 C   0  0  0  0  0  0  0  0  0  0  0  0
    4.9245    0.3107   22.1264 C   0  0  0  0  0  0  0  0  0  0  0  0
    8.3487   -0.4244   23.3623 H   0  0  0  0  0  0  0  0  0  0  0  0
    8.7205   -1.6892   22.1423 H   0  0  0  0  0  0  0  0  0  0  0  0
   10.1197    1.0611   24.1777 H   0  0  0  0  0  0  0  0  0  0  0  0
   12.5201    1.5361   24.4044 H   0  0  0  0  0  0  0  0  0  0  0  0
   14.1667    0.2808   23.0482 H   0  0  0  0  0  0  0  0  0  0  0  0
   10.9842   -1.9663   21.2902 H   0  0  0  0  0  0  0  0  0  0  0  0
    7.8609   -1.3166   20.3121 H   0  0  0  0  0  0  0  0  0  0  0  0
    4.2232    2.4057   19.0022 H   0  0  0  0  0  0  0  0  0  0  0  0
    4.8609    1.9202   16.6979 H   0  0  0  0  0  0  0  0  0  0  0  0
    7.6004   -0.9429   17.9003 H   0  0  0  0  0  0  0  0  0  0  0  0
    5.2019    3.4584   20.9292 H   0  0  0  0  0  0  0  0  0  0  0  0
    4.1667    3.9537   23.1047 H   0  0  0  0  0  0  0  0  0  0  0  0
    3.6185    2.1261   24.6596 H   0  0  0  0  0  0  0  0  0  0  0  0
    4.1130   -0.2037   24.0382 H   0  0  0  0  0  0  0  0  0  0  0  0
    5.1457   -0.7141   21.8665 H   0  0  0  0  0  0  0  0  0  0  0  0
  1  2  2  0
  2  3  1  0
  2 11  1  0
  3  4  1  0
  3 24  1  1
  3 25  1  0
  4  5  2  0
  4  8  1  0
  5  6  1  0
  5 26  1  0
  6  7  2  0
  6 27  1  0
  7  9  1  0
  7 28  1  0
  8  9  2  0
  8 29  1  0
  9 10  1  0
 11 12  1  0
 11 30  1  0
 12 13  2  0
 12 17  1  0
 13 14  1  0
 13 18  1  0
 14 15  2  0
 14 31  1  0
 15 16  1  0
 15 32  1  0
 16 17  2  0
 17 33  1  0
 18 19  2  0
 18 23  1  0
 19 20  1  0
 19 34  1  0
 20 21  2  0
 20 35  1  0
 21 22  1  0
 21 36  1  0
 22 23  2  0
 22 37  1  0
 23 38  1  0
M  END
$$$$
