LIG(A-306)
     RDKit          3D

 39 42  0  0  1  0  0  0  0  0999 V2000
   -9.6418    0.5359  -20.9878 O   0  0  0  0  0  0  0  0  0  0  0  0
   -9.0911   -0.5146  -21.3337 C   0  0  0  0  0  0  0  0  0  0  0  0
   -9.6808   -1.4303  -22.4062 C   0  0  2  0  0  0  0  0  0  0  0  0
   -8.9710   -1.1162  -23.7311 C   0  0  1  0  0  0  0  0  0  0  0  0
   -9.3800    0.1885  -24.3530 C   0  0  0  0  0  0  0  0  0  0  0  0
   -8.5836    0.8984  -24.9563 O   0  0  0  0  0  0  0  0  0  0  0  0
  -10.6742    0.5410  -24.2130 N   0  0  0  0  0  0  0  0  0  0  0  0
  -11.1634   -1.2001  -22.6052 C   0  0  0  0  0  0  0  0  0  0  0  0
  -11.6017   -0.1541  -23.4331 C   0  0  0  0  0  0  0  0  0  0  0  0
  -12.9622    0.1409  -23.5281 C   0  0  0  0  0  0  0  0  0  0  0  0
  -13.8830   -0.5962  -22.8014 C   0  0  0  0  0  0  0  0  0  0  0  0
  -12.1033   -1.9403  -21.8952 C   0  0  0  0  0  0  0  0  0  0  0  0
  -13.4398   -1.6173  -21.9881 C   0  0  0  0  0  0  0  0  0  0  0  0
  -14.5806   -2.4659  -20.9849 Cl  0  0  0  0  0  0  0  0  0  0  0  0
   -7.9321   -0.9541  -20.8017 N   0  0  0  0  0  0  0  0  0  0  0  0
   -7.2021   -0.3542  -19.7673 C   0  0  0  0  0  0  0  0  0  0  0  0
   -6.1539    0.5489  -20.1091 C   0  0  0  0  0  0  0  0  0  0  0  0
   -5.7290    0.7980  -21.4407 C   0  0  0  0  0  0  0  0  0  0  0  0
   -4.6844    1.6417  -21.6982 C   0  0  0  0  0  0  0  0  0  0  0  0
   -4.0136    2.2755  -20.6607 C   0  0  0  0  0  0  0  0  0  0  0  0
   -4.3970    2.0802  -19.3629 C   0  0  0  0  0  0  0  0  0  0  0  0
   -5.4761    1.2163  -19.0524 C   0  0  0  0  0  0  0  0  0  0  0  0
   -5.8963    0.9452  -17.7274 C   0  0  0  0  0  0  0  0  0  0  0  0
   -6.8700    0.1024  -17.4109 N   0  0  0  0  0  0  0  0  0  0  0  0
   -7.4964   -0.5270  -18.4161 C   0  0  0  0  0  0  0  0  0  0  0  0
   -9.5005   -2.4806  -22.1336 H   0  0  0  0  0  0  0  0  0  0  0  0
   -7.8876   -1.0845  -23.5432 H   0  0  0  0  0  0  0  0  0  0  0  0
   -9.1961   -1.9238  -24.4433 H   0  0  0  0  0  0  0  0  0  0  0  0
  -10.9913    1.3547  -24.7002 H   0  0  0  0  0  0  0  0  0  0  0  0
  -13.2974    0.9437  -24.1680 H   0  0  0  0  0  0  0  0  0  0  0  0
  -14.9374   -0.3730  -22.8713 H   0  0  0  0  0  0  0  0  0  0  0  0
  -11.7868   -2.7648  -21.2735 H   0  0  0  0  0  0  0  0  0  0  0  0
   -7.5543   -1.7965  -21.1860 H   0  0  0  0  0  0  0  0  0  0  0  0
   -6.2379    0.3145  -22.2614 H   0  0  0  0  0  0  0  0  0  0  0  0
   -4.3779    1.8170  -22.7189 H   0  0  0  0  0  0  0  0  0  0  0  0
   -3.1819    2.9283  -20.8808 H   0  0  0  0  0  0  0  0  0  0  0  0
   -3.8726    2.5889  -18.5675 H   0  0  0  0  0  0  0  0  0  0  0  0
   -5.3909    1.4581  -16.9225 H   0  0  0  0  0  0  0  0  0  0  0  0
   -8.2862   -1.2177  -18.1599 H   0  0  0  0  0  0  0  0  0  0  0  0
  1  2  2  0
  2  3  1  0
  2 15  1  0
  3  4  1  0
  3  8  1  0
  3 26  1  1
  4  5  1  0
  4 27  1  1
  4 28  1  0
  5  6  2  0
  5  7  1  0
  7  9  1  0
  7 29  1  0
  8  9  1  0
  8 12  2  0
  9 10  2  0
 10 11  1  0
 10 30  1  0
 11 13  2  0
 11 31  1  0
 12 13  1  0
 12 32  1  0
 13 14  1  0
 15 16  1  0
 15 33  1  0
 16 17  2  0
 16 25  1  0
 17 18  1  0
 17 22  1  0
 18 19  2  0
 18 34  1  0
 19 20  1  0
 19 35  1  0
 20 21  2  0
 20 36  1  0
 21 22  1  0
 21 37  1  0
 22 23  2  0
 23 24  1  0
 23 38  1  0
 24 25  2  0
 25 39  1  0
M  END
$$$$
