LIG(A-306)
     RDKit          3D

 51 54  0  0  1  0  0  0  0  0999 V2000
   13.9050   -1.6298   21.2221 Cl  0  0  0  0  0  0  0  0  0  0  0  0
   12.7909   -0.8580   22.3150 C   0  0  0  0  0  0  0  0  0  0  0  0
   11.4477   -1.1796   22.2413 C   0  0  0  0  0  0  0  0  0  0  0  0
   13.2494    0.1312   23.1552 C   0  0  0  0  0  0  0  0  0  0  0  0
   12.3416    0.8289   23.9286 C   0  0  0  0  0  0  0  0  0  0  0  0
   10.9772    0.5484   23.8667 C   0  0  0  0  0  0  0  0  0  0  0  0
   10.0402    1.3097   24.7777 C   0  0  1  0  0  0  0  0  0  0  0  0
    8.6247    1.1585   24.4001 N   0  0  2  0  0  0  0  0  0  0  0  0
    7.7231    1.7194   25.4162 C   0  0  1  0  0  0  0  0  0  0  0  0
    6.4290    2.2616   24.8762 C   0  0  1  0  0  0  0  0  0  0  0  0
    5.6716    2.7503   25.9696 O   0  0  0  0  0  0  0  0  0  0  0  0
    4.5120    3.4574   25.5509 C   0  0  1  0  0  0  0  0  0  0  0  0
   10.5238   -0.4590   23.0006 C   0  0  0  0  0  0  0  0  0  0  0  0
    9.0355   -0.7282   22.8756 C   0  0  1  0  0  0  0  0  0  0  0  0
    8.3041   -0.2467   24.1290 C   0  0  1  0  0  0  0  0  0  0  0  0
    8.4820    0.0055   21.6528 C   0  0  0  0  0  0  0  0  0  0  0  0
    9.0076    1.0305   21.2108 O   0  0  0  0  0  0  0  0  0  0  0  0
    7.3514   -0.5428   21.1293 N   0  0  0  0  0  0  0  0  0  0  0  0
    6.5805   -0.0681   20.0377 C   0  0  0  0  0  0  0  0  0  0  0  0
    5.4913    0.8236   20.3011 C   0  0  0  0  0  0  0  0  0  0  0  0
    4.9585    1.0598   21.5958 C   0  0  0  0  0  0  0  0  0  0  0  0
    3.9084    1.9142   21.7804 C   0  0  0  0  0  0  0  0  0  0  0  0
    3.3520    2.5956   20.7009 C   0  0  0  0  0  0  0  0  0  0  0  0
    3.8257    2.4004   19.4349 C   0  0  0  0  0  0  0  0  0  0  0  0
    4.8899    1.4947   19.1956 C   0  0  0  0  0  0  0  0  0  0  0  0
    5.3719    1.1924   17.8982 C   0  0  0  0  0  0  0  0  0  0  0  0
    6.3440    0.3295   17.6487 N   0  0  0  0  0  0  0  0  0  0  0  0
    6.9212   -0.2749   18.6988 C   0  0  0  0  0  0  0  0  0  0  0  0
   11.1156   -1.9830   21.6005 H   0  0  0  0  0  0  0  0  0  0  0  0
   14.3037    0.3588   23.2091 H   0  0  0  0  0  0  0  0  0  0  0  0
   12.6947    1.6045   24.5921 H   0  0  0  0  0  0  0  0  0  0  0  0
   10.1710    0.9386   25.8049 H   0  0  0  0  0  0  0  0  0  0  0  0
   10.3020    2.3773   24.7373 H   0  0  0  0  0  0  0  0  0  0  0  0
    8.4819    1.6707   23.5533 H   0  0  0  0  0  0  0  0  0  0  0  0
    7.4867    0.9258   26.1403 H   0  0  0  0  0  0  0  0  0  0  0  0
    8.2506    2.5377   25.9282 H   0  0  0  0  0  0  0  0  0  0  0  0
    6.6325    3.0782   24.1679 H   0  0  0  0  0  0  0  0  0  0  0  0
    5.8734    1.4621   24.3643 H   0  0  0  0  0  0  0  0  0  0  0  0
    3.9610    3.8146   26.4334 H   0  0  0  0  0  0  0  0  0  0  0  0
    4.8102    4.3168   24.9324 H   0  0  0  0  0  0  0  0  0  0  0  0
    3.8672    2.7883   24.9623 H   0  0  0  0  0  0  0  0  0  0  0  0
    8.8702   -1.8088   22.7537 H   0  0  0  0  0  0  0  0  0  0  0  0
    8.6132   -0.8611   24.9875 H   0  0  0  0  0  0  0  0  0  0  0  0
    7.2193   -0.3481   23.9772 H   0  0  0  0  0  0  0  0  0  0  0  0
    7.0254   -1.3809   21.5668 H   0  0  0  0  0  0  0  0  0  0  0  0
    5.3900    0.5562   22.4481 H   0  0  0  0  0  0  0  0  0  0  0  0
    3.5065    2.0625   22.7718 H   0  0  0  0  0  0  0  0  0  0  0  0
    2.5376    3.2853   20.8665 H   0  0  0  0  0  0  0  0  0  0  0  0
    3.3861    2.9404   18.6093 H   0  0  0  0  0  0  0  0  0  0  0  0
    4.9171    1.6983   17.0593 H   0  0  0  0  0  0  0  0  0  0  0  0
    7.7138   -0.9787   18.4919 H   0  0  0  0  0  0  0  0  0  0  0  0
  1  2  1  0
  2  3  2  0
  2  4  1  0
  3 13  1  0
  3 29  1  0
  4  5  2  0
  4 30  1  0
  5  6  1  0
  5 31  1  0
  6  7  1  0
  6 13  2  0
  7  8  1  0
  7 32  1  1
  7 33  1  0
  8  9  1  0
  8 15  1  0
  8 34  1  6
  9 10  1  0
  9 35  1  1
  9 36  1  0
 10 11  1  0
 10 37  1  6
 10 38  1  0
 11 12  1  0
 12 39  1  1
 12 40  1  0
 12 41  1  0
 13 14  1  0
 14 15  1  0
 14 16  1  0
 14 42  1  6
 15 43  1  1
 15 44  1  0
 16 17  2  0
 16 18  1  0
 18 19  1  0
 18 45  1  0
 19 20  2  0
 19 28  1  0
 20 21  1  0
 20 25  1  0
 21 22  2  0
 21 46  1  0
 22 23  1  0
 22 47  1  0
 23 24  2  0
 23 48  1  0
 24 25  1  0
 24 49  1  0
 25 26  2  0
 26 27  1  0
 26 50  1  0
 27 28  2  0
 28 51  1  0
M  CHG  1   8   1
M  END
$$$$
