LIG(A-305)
     RDKit          3D

 43 46  0  0  0  0  0  0  0  0999 V2000
    5.6271   -2.7993   20.6882 O   0  0  0  0  0  0  0  0  0  0  0  0
    6.3153   -1.7964   20.7940 C   0  0  0  0  0  0  0  0  0  0  0  0
    6.1153   -0.6534   19.8410 C   0  0  0  0  0  0  0  0  0  0  0  0
    5.1555    0.3617   20.1101 C   0  0  0  0  0  0  0  0  0  0  0  0
    4.5127    0.5389   21.3632 C   0  0  0  0  0  0  0  0  0  0  0  0
    3.5929    1.5320   21.5443 C   0  0  0  0  0  0  0  0  0  0  0  0
    3.2768    2.3980   20.5123 C   0  0  0  0  0  0  0  0  0  0  0  0
    3.8766    2.2799   19.2922 C   0  0  0  0  0  0  0  0  0  0  0  0
    4.8284    1.2577   19.0561 C   0  0  0  0  0  0  0  0  0  0  0  0
    5.4882    1.0846   17.8140 C   0  0  0  0  0  0  0  0  0  0  0  0
    6.3910    0.1424   17.5739 N   0  0  0  0  0  0  0  0  0  0  0  0
    6.6791   -0.7066   18.5679 C   0  0  0  0  0  0  0  0  0  0  0  0
    7.2275   -1.6455   21.7809 N   0  0  0  0  0  0  0  0  0  0  0  0
    8.0917   -0.4636   21.9177 C   0  0  1  0  0  0  0  0  0  0  0  0
    9.5506   -0.8878   21.9914 C   0  0  1  0  0  0  0  0  0  0  0  0
    9.7587   -1.8558   23.0775 N   0  0  0  0  0  0  0  0  0  0  0  0
    8.8855   -3.0327   22.9567 C   0  0  1  0  0  0  0  0  0  0  0  0
    7.4125   -2.6295   22.8559 C   0  0  1  0  0  0  0  0  0  0  0  0
   11.0747   -2.0780   23.5562 C   0  0  0  0  0  0  0  0  0  0  0  0
   12.1857   -1.5461   22.8820 C   0  0  0  0  0  0  0  0  0  0  0  0
   13.4617   -1.7123   23.4048 C   0  0  0  0  0  0  0  0  0  0  0  0
   13.6538   -2.4133   24.5778 C   0  0  0  0  0  0  0  0  0  0  0  0
   12.5719   -2.9661   25.2340 C   0  0  0  0  0  0  0  0  0  0  0  0
   11.2858   -2.8049   24.7332 C   0  0  0  0  0  0  0  0  0  0  0  0
    4.7542   -0.1202   22.1840 H   0  0  0  0  0  0  0  0  0  0  0  0
    3.1073    1.6426   22.5026 H   0  0  0  0  0  0  0  0  0  0  0  0
    2.5466    3.1769   20.6744 H   0  0  0  0  0  0  0  0  0  0  0  0
    3.6239    2.9705   18.5012 H   0  0  0  0  0  0  0  0  0  0  0  0
    5.2402    1.7631   17.0112 H   0  0  0  0  0  0  0  0  0  0  0  0
    7.3986   -1.4871   18.3692 H   0  0  0  0  0  0  0  0  0  0  0  0
    7.9478    0.1948   21.0483 H   0  0  0  0  0  0  0  0  0  0  0  0
    7.8236    0.0786   22.8365 H   0  0  0  0  0  0  0  0  0  0  0  0
    9.8406   -1.3498   21.0362 H   0  0  0  0  0  0  0  0  0  0  0  0
   10.1752   -0.0010   22.1743 H   0  0  0  0  0  0  0  0  0  0  0  0
    9.1651   -3.5942   22.0530 H   0  0  0  0  0  0  0  0  0  0  0  0
    9.0216   -3.6712   23.8419 H   0  0  0  0  0  0  0  0  0  0  0  0
    7.0904   -2.1889   23.8109 H   0  0  0  0  0  0  0  0  0  0  0  0
    6.8057   -3.5213   22.6403 H   0  0  0  0  0  0  0  0  0  0  0  0
   12.0479   -1.0075   21.9561 H   0  0  0  0  0  0  0  0  0  0  0  0
   14.3109   -1.2892   22.8889 H   0  0  0  0  0  0  0  0  0  0  0  0
   14.6486   -2.5293   24.9820 H   0  0  0  0  0  0  0  0  0  0  0  0
   12.7264   -3.5280   26.1433 H   0  0  0  0  0  0  0  0  0  0  0  0
   10.4466   -3.2420   25.2539 H   0  0  0  0  0  0  0  0  0  0  0  0
  1  2  2  0
  2  3  1  0
  2 13  1  0
  3  4  2  0
  3 12  1  0
  4  5  1  0
  4  9  1  0
  5  6  2  0
  5 25  1  0
  6  7  1  0
  6 26  1  0
  7  8  2  0
  7 27  1  0
  8  9  1  0
  8 28  1  0
  9 10  2  0
 10 11  1  0
 10 29  1  0
 11 12  2  0
 12 30  1  0
 13 14  1  0
 13 18  1  0
 14 15  1  0
 14 31  1  6
 14 32  1  0
 15 16  1  0
 15 33  1  6
 15 34  1  0
 16 17  1  0
 16 19  1  0
 17 18  1  0
 17 35  1  6
 17 36  1  0
 18 37  1  1
 18 38  1  0
 19 20  2  0
 19 24  1  0
 20 21  1  0
 20 39  1  0
 21 22  2  0
 21 40  1  0
 22 23  1  0
 22 41  1  0
 23 24  2  0
 23 42  1  0
 24 43  1  0
M  END
$$$$
