LIG(A-306)
     RDKit          3D

 41 44  0  0  1  0  0  0  0  0999 V2000
   13.7452   -1.7621   21.5747 Cl  0  0  0  0  0  0  0  0  0  0  0  0
   12.4352   -1.0219   22.4377 C   0  0  0  0  0  0  0  0  0  0  0  0
   12.6747   -0.0615   23.4130 C   0  0  0  0  0  0  0  0  0  0  0  0
   14.2916    0.3477   23.8854 Cl  0  0  0  0  0  0  0  0  0  0  0  0
   11.1391   -1.3834   22.1241 C   0  0  0  0  0  0  0  0  0  0  0  0
   10.0596   -0.7937   22.7789 C   0  0  0  0  0  0  0  0  0  0  0  0
   10.3121    0.1708   23.7682 C   0  0  0  0  0  0  0  0  0  0  0  0
   11.6201    0.5413   24.0698 C   0  0  0  0  0  0  0  0  0  0  0  0
    8.6316   -1.1877   22.4595 C   0  0  1  0  0  0  0  0  0  0  0  0
    7.7830   -1.0843   23.7448 C   0  0  1  0  0  0  0  0  0  0  0  0
    7.8736    0.3158   24.3279 C   0  0  1  0  0  0  0  0  0  0  0  0
    9.2676    0.7298   24.4832 N   0  0  0  0  0  0  0  0  0  0  0  0
    8.1007   -0.2512   21.3727 C   0  0  0  0  0  0  0  0  0  0  0  0
    8.6643    0.8077   21.0846 O   0  0  0  0  0  0  0  0  0  0  0  0
    6.9678   -0.6819   20.7725 N   0  0  0  0  0  0  0  0  0  0  0  0
    6.2955   -0.0176   19.7220 C   0  0  0  0  0  0  0  0  0  0  0  0
    5.2504    0.8743   20.0004 C   0  0  0  0  0  0  0  0  0  0  0  0
    4.7474    1.1311   21.4140 C   0  0  2  0  0  0  0  0  0  0  0  0
    3.5513    2.0096   21.6693 C   0  0  1  0  0  0  0  0  0  0  0  0
    4.9051    2.4975   22.0273 C   0  0  2  0  0  0  0  0  0  0  0  0
    4.6850    1.5658   18.9358 C   0  0  0  0  0  0  0  0  0  0  0  0
    5.1659    1.3516   17.6620 C   0  0  0  0  0  0  0  0  0  0  0  0
    6.1559    0.5015   17.3754 N   0  0  0  0  0  0  0  0  0  0  0  0
    6.7012   -0.1702   18.3959 C   0  0  0  0  0  0  0  0  0  0  0  0
   10.9610   -2.1301   21.3644 H   0  0  0  0  0  0  0  0  0  0  0  0
   11.8095    1.2987   24.8160 H   0  0  0  0  0  0  0  0  0  0  0  0
    8.6081   -2.2243   22.0923 H   0  0  0  0  0  0  0  0  0  0  0  0
    6.7334   -1.3100   23.5053 H   0  0  0  0  0  0  0  0  0  0  0  0
    8.1546   -1.8095   24.4837 H   0  0  0  0  0  0  0  0  0  0  0  0
    7.3622    1.0196   23.6547 H   0  0  0  0  0  0  0  0  0  0  0  0
    7.3829    0.3279   25.3123 H   0  0  0  0  0  0  0  0  0  0  0  0
    9.3868    1.7002   24.6934 H   0  0  0  0  0  0  0  0  0  0  0  0
    6.5736   -1.5409   21.0989 H   0  0  0  0  0  0  0  0  0  0  0  0
    4.8674    0.2877   22.1099 H   0  0  0  0  0  0  0  0  0  0  0  0
    3.0114    2.4607   20.8237 H   0  0  0  0  0  0  0  0  0  0  0  0
    2.8359    1.7455   22.4622 H   0  0  0  0  0  0  0  0  0  0  0  0
    5.3669    3.3096   21.4465 H   0  0  0  0  0  0  0  0  0  0  0  0
    5.1914    2.5944   23.0849 H   0  0  0  0  0  0  0  0  0  0  0  0
    3.8779    2.2632   19.1046 H   0  0  0  0  0  0  0  0  0  0  0  0
    4.7166    1.9025   16.8489 H   0  0  0  0  0  0  0  0  0  0  0  0
    7.4977   -0.8675   18.1817 H   0  0  0  0  0  0  0  0  0  0  0  0
  1  2  1  0
  2  3  1  0
  2  5  2  0
  3  4  1  0
  3  8  2  0
  5  6  1  0
  5 25  1  0
  6  7  2  0
  6  9  1  0
  7  8  1  0
  7 12  1  0
  8 26  1  0
  9 10  1  0
  9 13  1  0
  9 27  1  6
 10 11  1  0
 10 28  1  6
 10 29  1  0
 11 12  1  0
 11 30  1  6
 11 31  1  0
 12 32  1  0
 13 14  2  0
 13 15  1  0
 15 16  1  0
 15 33  1  0
 16 17  2  0
 16 24  1  0
 17 18  1  0
 17 21  1  0
 18 19  1  0
 18 20  1  0
 18 34  1  1
 19 20  1  0
 19 35  1  6
 19 36  1  0
 20 37  1  6
 20 38  1  0
 21 22  2  0
 21 39  1  0
 22 23  1  0
 22 40  1  0
 23 24  2  0
 24 41  1  0
M  END
$$$$
