LIG(A-305)
     RDKit          3D

 46 47  0  0  0  0  0  0  0  0999 V2000
    6.2160    1.3898   24.6082 N   0  0  0  0  0  0  0  0  0  0  0  0
    6.1150    0.7748   25.5582 C   0  0  0  0  0  0  0  0  0  0  0  0
    6.0461   -0.0422   26.7753 C   0  0  2  0  0  0  0  0  0  0  0  0
    4.7510   -0.8591   26.7254 C   0  0  1  0  0  0  0  0  0  0  0  0
    6.0462    0.8999   27.9842 C   0  0  1  0  0  0  0  0  0  0  0  0
    7.2910   -0.9482   26.8182 C   0  0  1  0  0  0  0  0  0  0  0  0
    8.5561   -0.2522   26.6942 N   0  0  0  0  0  0  0  0  0  0  0  0
    9.3530   -0.2143   25.5611 C   0  0  0  0  0  0  0  0  0  0  0  0
   10.5720    0.4557   25.5820 C   0  0  0  0  0  0  0  0  0  0  0  0
   11.3670    0.4246   24.4520 C   0  0  0  0  0  0  0  0  0  0  0  0
   12.9010    1.2485   24.4769 Cl  0  0  0  0  0  0  0  0  0  0  0  0
   10.9739   -0.2264   23.3000 C   0  0  0  0  0  0  0  0  0  0  0  0
    8.9399   -0.8583   24.3982 C   0  0  0  0  0  0  0  0  0  0  0  0
    9.7369   -0.8594   23.2611 C   0  0  0  0  0  0  0  0  0  0  0  0
    9.2308   -1.4804   21.9802 C   0  0  1  0  0  0  0  0  0  0  0  0
    8.4708   -0.4554   21.1632 C   0  0  0  0  0  0  0  0  0  0  0  0
    8.9578    0.6336   20.8731 O   0  0  0  0  0  0  0  0  0  0  0  0
    7.2427   -0.8434   20.7602 N   0  0  0  0  0  0  0  0  0  0  0  0
    6.5577   -0.1104   19.7663 C   0  0  0  0  0  0  0  0  0  0  0  0
    5.5178    0.7567   20.1193 C   0  0  0  0  0  0  0  0  0  0  0  0
    5.1298    0.9927   21.5553 C   0  0  1  0  0  0  0  0  0  0  0  0
    6.9676   -0.1674   18.4362 C   0  0  0  0  0  0  0  0  0  0  0  0
    6.4276    0.5856   17.4702 N   0  0  0  0  0  0  0  0  0  0  0  0
    5.3967    1.3696   17.8073 C   0  0  0  0  0  0  0  0  0  0  0  0
    4.9127    1.4787   19.0963 C   0  0  0  0  0  0  0  0  0  0  0  0
    4.6748   -1.4820   27.6288 H   0  0  0  0  0  0  0  0  0  0  0  0
    3.8893   -0.1773   26.6764 H   0  0  0  0  0  0  0  0  0  0  0  0
    4.7590   -1.5046   25.8347 H   0  0  0  0  0  0  0  0  0  0  0  0
    5.9949    0.3086   28.9105 H   0  0  0  0  0  0  0  0  0  0  0  0
    6.9689    1.4987   27.9823 H   0  0  0  0  0  0  0  0  0  0  0  0
    5.1748    1.5689   27.9277 H   0  0  0  0  0  0  0  0  0  0  0  0
    7.2895   -1.4860   27.7779 H   0  0  0  0  0  0  0  0  0  0  0  0
    7.2163   -1.6712   25.9926 H   0  0  0  0  0  0  0  0  0  0  0  0
    8.8831    0.2450   27.4978 H   0  0  0  0  0  0  0  0  0  0  0  0
   10.8911    0.9900   26.4647 H   0  0  0  0  0  0  0  0  0  0  0  0
   11.6219   -0.2439   22.4362 H   0  0  0  0  0  0  0  0  0  0  0  0
    7.9860   -1.3644   24.3800 H   0  0  0  0  0  0  0  0  0  0  0  0
   10.0849   -1.8505   21.3941 H   0  0  0  0  0  0  0  0  0  0  0  0
    8.5619   -2.3192   22.2231 H   0  0  0  0  0  0  0  0  0  0  0  0
    6.8167   -1.6517   21.1664 H   0  0  0  0  0  0  0  0  0  0  0  0
    5.9894    1.4035   22.1051 H   0  0  0  0  0  0  0  0  0  0  0  0
    4.2935    1.7061   21.5966 H   0  0  0  0  0  0  0  0  0  0  0  0
    4.8227    0.0409   22.0132 H   0  0  0  0  0  0  0  0  0  0  0  0
    7.7596   -0.8524   18.1716 H   0  0  0  0  0  0  0  0  0  0  0  0
    4.9180    1.9474   17.0305 H   0  0  0  0  0  0  0  0  0  0  0  0
    4.0703    2.1203   19.3083 H   0  0  0  0  0  0  0  0  0  0  0  0
  1  2  3  0
  3  2  1  6
  3  4  1  0
  3  5  1  0
  3  6  1  0
  4 26  1  1
  4 27  1  0
  4 28  1  0
  5 29  1  1
  5 30  1  0
  5 31  1  0
  6  7  1  0
  6 32  1  1
  6 33  1  0
  7  8  1  0
  7 34  1  0
  8  9  2  0
  8 13  1  0
  9 10  1  0
  9 35  1  0
 10 11  1  0
 10 12  2  0
 12 14  1  0
 12 36  1  0
 13 14  2  0
 13 37  1  0
 14 15  1  0
 15 16  1  0
 15 38  1  6
 15 39  1  0
 16 17  2  0
 16 18  1  0
 18 19  1  0
 18 40  1  0
 19 20  2  0
 19 22  1  0
 20 21  1  0
 20 25  1  0
 21 41  1  1
 21 42  1  0
 21 43  1  0
 22 23  2  0
 22 44  1  0
 23 24  1  0
 24 25  2  0
 24 45  1  0
 25 46  1  0
M  END
$$$$
