LIG(A-305)
     RDKit          3D

 48 50  0  0  0  0  0  0  0  0999 V2000
    7.2534   -3.7976   21.2628 N   0  0  0  0  0  0  0  0  0  0  0  0
    9.5103   -3.9920   26.0333 N   0  0  0  0  0  0  0  0  0  0  0  0
    6.7412   -3.7155   20.0089 C   0  0  0  0  0  0  0  0  0  0  0  0
    7.9417   -2.7077   21.9726 C   0  0  1  0  0  0  0  0  0  0  0  0
   13.2413   -1.9715   24.3437 C   0  0  0  0  0  0  0  0  0  0  0  0
    5.9240   -4.5324   19.6170 O   0  0  0  0  0  0  0  0  0  0  0  0
   12.5045   -3.1534   26.7688 C   0  0  0  0  0  0  0  0  0  0  0  0
    7.1703   -5.0696   21.9978 C   0  0  1  0  0  0  0  0  0  0  0  0
   10.0835   -2.8341   26.3752 C   0  0  0  0  0  0  0  0  0  0  0  0
   11.8613   -2.0563   24.6959 C   0  0  0  0  0  0  0  0  0  0  0  0
    8.1553   -4.3478   26.4346 C   0  0  1  0  0  0  0  0  0  0  0  0
    7.1072   -3.7326   25.5118 C   0  0  1  0  0  0  0  0  0  0  0  0
   12.6380   -0.9944   22.2178 C   0  0  0  0  0  0  0  0  0  0  0  0
   14.2083   -2.4897   25.2335 C   0  0  0  0  0  0  0  0  0  0  0  0
    7.3880   -2.5636   23.3857 C   0  0  1  0  0  0  0  0  0  0  0  0
   13.8375   -3.0676   26.4075 C   0  0  0  0  0  0  0  0  0  0  0  0
   13.5971   -1.4216   23.0896 C   0  0  0  0  0  0  0  0  0  0  0  0
   11.2981   -1.0732   22.5500 C   0  0  0  0  0  0  0  0  0  0  0  0
    7.2472   -2.6375   19.1008 C   0  0  1  0  0  0  0  0  0  0  0  0
    7.4619   -3.8526   24.0917 N   0  0  2  0  0  0  0  0  0  0  0  0
    9.4948   -1.9660   27.0154 O   0  0  0  0  0  0  0  0  0  0  0  0
   11.5134   -2.6683   25.9450 C   0  0  0  0  0  0  0  0  0  0  0  0
    6.6266   -4.8345   23.3949 C   0  0  1  0  0  0  0  0  0  0  0  0
   10.9082   -1.5782   23.7581 C   0  0  0  0  0  0  0  0  0  0  0  0
   10.0325   -4.6407   25.4796 H   0  0  0  0  0  0  0  0  0  0  0  0
    9.0174   -2.9316   22.0255 H   0  0  0  0  0  0  0  0  0  0  0  0
    7.7897   -1.7656   21.4256 H   0  0  0  0  0  0  0  0  0  0  0  0
   12.2373   -3.6079   27.7113 H   0  0  0  0  0  0  0  0  0  0  0  0
    6.5019   -5.7573   21.4590 H   0  0  0  0  0  0  0  0  0  0  0  0
    8.1740   -5.5141   22.0688 H   0  0  0  0  0  0  0  0  0  0  0  0
    8.0529   -5.4427   26.4086 H   0  0  0  0  0  0  0  0  0  0  0  0
    7.9819   -3.9875   27.4593 H   0  0  0  0  0  0  0  0  0  0  0  0
    6.1476   -4.2436   25.6792 H   0  0  0  0  0  0  0  0  0  0  0  0
    7.0028   -2.6660   25.7595 H   0  0  0  0  0  0  0  0  0  0  0  0
   12.9284   -0.5908   21.2590 H   0  0  0  0  0  0  0  0  0  0  0  0
   15.2558   -2.4261   24.9782 H   0  0  0  0  0  0  0  0  0  0  0  0
    7.9787   -1.8145   23.9333 H   0  0  0  0  0  0  0  0  0  0  0  0
    6.3389   -2.2369   23.3338 H   0  0  0  0  0  0  0  0  0  0  0  0
   14.5943   -3.4654   27.0674 H   0  0  0  0  0  0  0  0  0  0  0  0
   14.6395   -1.3389   22.8192 H   0  0  0  0  0  0  0  0  0  0  0  0
   10.5522   -0.7321   21.8474 H   0  0  0  0  0  0  0  0  0  0  0  0
    6.7716   -2.7357   18.1138 H   0  0  0  0  0  0  0  0  0  0  0  0
    7.0041   -1.6538   19.5286 H   0  0  0  0  0  0  0  0  0  0  0  0
    8.3378   -2.7311   18.9930 H   0  0  0  0  0  0  0  0  0  0  0  0
    8.4089   -4.1703   24.0421 H   0  0  0  0  0  0  0  0  0  0  0  0
    5.5963   -4.4555   23.3272 H   0  0  0  0  0  0  0  0  0  0  0  0
    6.6328   -5.7819   23.9537 H   0  0  0  0  0  0  0  0  0  0  0  0
    9.8572   -1.6143   24.0041 H   0  0  0  0  0  0  0  0  0  0  0  0
  1  3  1  0
  1  4  1  0
  1  8  1  0
  2  9  1  0
  2 11  1  0
  2 25  1  0
  3  6  2  0
  3 19  1  0
  4 15  1  0
  4 26  1  1
  4 27  1  0
  5 10  2  0
  5 14  1  0
  5 17  1  0
  7 16  1  0
  7 22  2  0
  7 28  1  0
  8 23  1  0
  8 29  1  6
  8 30  1  0
  9 21  2  0
  9 22  1  0
 10 22  1  0
 10 24  1  0
 11 12  1  0
 11 31  1  1
 11 32  1  0
 12 20  1  0
 12 33  1  6
 12 34  1  0
 13 17  2  0
 13 18  1  0
 13 35  1  0
 14 16  2  0
 14 36  1  0
 15 20  1  0
 15 37  1  1
 15 38  1  0
 16 39  1  0
 17 40  1  0
 18 24  2  0
 18 41  1  0
 19 42  1  6
 19 43  1  0
 19 44  1  0
 20 23  1  0
 20 45  1  1
 23 46  1  6
 23 47  1  0
 24 48  1  0
M  CHG  1  20   1
M  END
$$$$
