LIG(A-305)
     RDKit          3D

 39 41  0  0  0  0  0  0  0  0999 V2000
    9.6813    0.8321   20.9381 O   0  0  0  0  0  0  0  0  0  0  0  0
    9.0751   -0.1468   21.3612 C   0  0  0  0  0  0  0  0  0  0  0  0
    7.7550   -0.3415   21.1733 N   0  0  0  0  0  0  0  0  0  0  0  0
    6.9640   -0.0244   20.0454 C   0  0  0  0  0  0  0  0  0  0  0  0
    7.4940    0.0824   18.7573 C   0  0  0  0  0  0  0  0  0  0  0  0
    6.8320    0.5945   17.7134 N   0  0  0  0  0  0  0  0  0  0  0  0
    5.5911    1.0318   17.9374 C   0  0  0  0  0  0  0  0  0  0  0  0
    4.9742    0.9769   19.1715 C   0  0  0  0  0  0  0  0  0  0  0  0
    5.6541    0.4378   20.2595 C   0  0  0  0  0  0  0  0  0  0  0  0
    5.0202    0.4280   21.6265 C   0  0  1  0  0  0  0  0  0  0  0  0
    9.7690   -1.1749   22.2352 C   0  0  1  0  0  0  0  0  0  0  0  0
    8.9670   -1.6147   23.3613 N   0  0  0  0  0  0  0  0  0  0  0  0
    9.1948   -2.7637   24.0673 C   0  0  0  0  0  0  0  0  0  0  0  0
    8.2738   -3.1705   25.0824 C   0  0  0  0  0  0  0  0  0  0  0  0
    7.0819   -2.4652   25.3895 C   0  0  0  0  0  0  0  0  0  0  0  0
    6.2309   -2.9200   26.3526 C   0  0  0  0  0  0  0  0  0  0  0  0
    6.5158   -4.0820   27.0566 C   0  0  0  0  0  0  0  0  0  0  0  0
    7.6536   -4.7933   26.7985 C   0  0  0  0  0  0  0  0  0  0  0  0
    8.5566   -4.3595   25.8014 C   0  0  0  0  0  0  0  0  0  0  0  0
    9.6624   -5.1277   25.5474 N   0  0  0  0  0  0  0  0  0  0  0  0
   10.4805   -4.7079   24.5983 C   0  0  0  0  0  0  0  0  0  0  0  0
   10.2996   -3.5589   23.8473 C   0  0  0  0  0  0  0  0  0  0  0  0
    7.2687   -0.7685   21.9356 H   0  0  0  0  0  0  0  0  0  0  0  0
    8.5015   -0.2705   18.5938 H   0  0  0  0  0  0  0  0  0  0  0  0
    5.0397    1.4511   17.1088 H   0  0  0  0  0  0  0  0  0  0  0  0
    3.9681    1.3508   19.2919 H   0  0  0  0  0  0  0  0  0  0  0  0
    5.6157    1.0491   22.3118 H   0  0  0  0  0  0  0  0  0  0  0  0
    3.9991    0.8315   21.5599 H   0  0  0  0  0  0  0  0  0  0  0  0
    4.9828   -0.6038   22.0058 H   0  0  0  0  0  0  0  0  0  0  0  0
   10.0102   -2.0517   21.6163 H   0  0  0  0  0  0  0  0  0  0  0  0
   10.6987   -0.7321   22.6220 H   0  0  0  0  0  0  0  0  0  0  0  0
    8.6002   -0.8662   23.9138 H   0  0  0  0  0  0  0  0  0  0  0  0
    6.8459   -1.5574   24.8541 H   0  0  0  0  0  0  0  0  0  0  0  0
    5.3266   -2.3710   26.5698 H   0  0  0  0  0  0  0  0  0  0  0  0
    5.8306   -4.4277   27.8165 H   0  0  0  0  0  0  0  0  0  0  0  0
    7.8641   -5.6918   27.3595 H   0  0  0  0  0  0  0  0  0  0  0  0
    9.8424   -5.9687   26.0576 H   0  0  0  0  0  0  0  0  0  0  0  0
   11.3559   -5.3061   24.3930 H   0  0  0  0  0  0  0  0  0  0  0  0
   11.0215   -3.2864   23.0916 H   0  0  0  0  0  0  0  0  0  0  0  0
  1  2  2  0
  2  3  1  0
  2 11  1  0
  3  4  1  0
  3 23  1  0
  4  5  2  0
  4  9  1  0
  5  6  1  0
  5 24  1  0
  6  7  2  0
  7  8  1  0
  7 25  1  0
  8  9  2  0
  8 26  1  0
  9 10  1  0
 10 27  1  1
 10 28  1  0
 10 29  1  0
 11 12  1  0
 11 30  1  6
 11 31  1  0
 12 13  1  0
 12 32  1  0
 13 14  2  0
 13 22  1  0
 14 15  1  0
 14 19  1  0
 15 16  2  0
 15 33  1  0
 16 17  1  0
 16 34  1  0
 17 18  2  0
 17 35  1  0
 18 19  1  0
 18 36  1  0
 19 20  2  0
 20 21  1  0
 20 37  1  0
 21 22  2  0
 21 38  1  0
 22 39  1  0
M  CHG  1  20   1
M  END
$$$$
