LIG(A-305)
     RDKit          3D

 40 43  0  0  1  0  0  0  0  0999 V2000
   10.6447   -0.5271   23.1821 N   0  0  0  0  0  0  0  0  0  0  0  0
    6.4985    0.6159   17.4172 N   0  0  0  0  0  0  0  0  0  0  0  0
   11.4989    1.4839   23.7310 N   0  0  0  0  0  0  0  0  0  0  0  0
   10.4248    0.7609   23.6061 C   0  0  0  0  0  0  0  0  0  0  0  0
    7.2286   -0.5290   20.9353 C   0  0  1  0  0  0  0  0  0  0  0  0
   12.5338    0.5838   23.3550 O   0  0  0  0  0  0  0  0  0  0  0  0
    7.7968   -0.4058   25.1802 C   0  0  1  0  0  0  0  0  0  0  0  0
    6.5436    0.1460   19.7733 C   0  0  0  0  0  0  0  0  0  0  0  0
    7.0206   -0.0021   18.4822 C   0  0  0  0  0  0  0  0  0  0  0  0
    5.4466    1.4239   17.6242 C   0  0  0  0  0  0  0  0  0  0  0  0
    4.8947    1.6430   18.8743 C   0  0  0  0  0  0  0  0  0  0  0  0
   12.7466   -1.6952   22.5461 C   0  0  1  0  0  0  0  0  0  0  0  0
    9.0099    1.2220   23.8531 C   0  0  2  0  0  0  0  0  0  0  0  0
    8.5259    0.9341   25.2841 C   0  0  1  0  0  0  0  0  0  0  0  0
   11.9247   -0.5712   23.0421 C   0  0  0  0  0  0  0  0  0  0  0  0
   14.0686   -1.3923   21.9100 C   0  0  1  0  0  0  0  0  0  0  0  0
    8.0967    0.4760   21.6652 C   0  0  0  0  0  0  0  0  0  0  0  0
    8.0678    0.4610   23.0192 N   0  0  0  0  0  0  0  0  0  0  0  0
    8.7597    1.2929   21.0421 O   0  0  0  0  0  0  0  0  0  0  0  0
    7.1168   -0.3239   23.8293 C   0  0  2  0  0  0  0  0  0  0  0  0
    5.4567    0.9930   19.9573 C   0  0  0  0  0  0  0  0  0  0  0  0
   14.0307   -2.0063   23.2540 C   0  0  1  0  0  0  0  0  0  0  0  0
    6.4709   -0.9283   21.6255 H   0  0  0  0  0  0  0  0  0  0  0  0
    7.8557   -1.3526   20.5629 H   0  0  0  0  0  0  0  0  0  0  0  0
    8.5069   -1.2453   25.2144 H   0  0  0  0  0  0  0  0  0  0  0  0
    7.0584   -0.5171   25.9879 H   0  0  0  0  0  0  0  0  0  0  0  0
    7.8654   -0.6564   18.3255 H   0  0  0  0  0  0  0  0  0  0  0  0
    5.0101    1.9273   16.7742 H   0  0  0  0  0  0  0  0  0  0  0  0
    4.0490    2.3029   19.0002 H   0  0  0  0  0  0  0  0  0  0  0  0
   12.2002   -2.5576   22.1367 H   0  0  0  0  0  0  0  0  0  0  0  0
    8.9245    2.2989   23.6454 H   0  0  0  0  0  0  0  0  0  0  0  0
    7.8416    1.7232   25.6291 H   0  0  0  0  0  0  0  0  0  0  0  0
    9.3784    0.8602   25.9753 H   0  0  0  0  0  0  0  0  0  0  0  0
   14.4102   -1.9824   21.0467 H   0  0  0  0  0  0  0  0  0  0  0  0
   14.3947   -0.3483   21.7927 H   0  0  0  0  0  0  0  0  0  0  0  0
    6.1470    0.1896   23.9065 H   0  0  0  0  0  0  0  0  0  0  0  0
    6.9679   -1.3262   23.4013 H   0  0  0  0  0  0  0  0  0  0  0  0
    5.0511    1.1434   20.9469 H   0  0  0  0  0  0  0  0  0  0  0  0
   14.3282   -1.4181   24.1347 H   0  0  0  0  0  0  0  0  0  0  0  0
   14.3437   -3.0522   23.3888 H   0  0  0  0  0  0  0  0  0  0  0  0
  1  4  1  0
  1 15  2  0
  2  9  2  0
  2 10  1  0
  3  4  2  0
  3  6  1  0
  4 13  1  0
  5  8  1  0
  5 17  1  0
  5 23  1  1
  5 24  1  0
  6 15  1  0
  7 14  1  0
  7 20  1  0
  7 25  1  6
  7 26  1  0
  8  9  1  0
  8 21  2  0
  9 27  1  0
 10 11  2  0
 10 28  1  0
 11 21  1  0
 11 29  1  0
 12 15  1  0
 12 16  1  0
 12 22  1  0
 12 30  1  6
 13 14  1  0
 13 18  1  0
 13 31  1  6
 14 32  1  1
 14 33  1  0
 16 22  1  0
 16 34  1  6
 16 35  1  0
 17 18  1  0
 17 19  2  0
 18 20  1  0
 20 36  1  1
 20 37  1  0
 21 38  1  0
 22 39  1  1
 22 40  1  0
M  END
$$$$
