LIG(A-306)
     RDKit          3D

 51 54  0  0  1  0  0  0  0  0999 V2000
   14.0111   -1.5483   21.4076 Cl  0  0  0  0  0  0  0  0  0  0  0  0
   12.8107   -0.7889   22.4161 C   0  0  0  0  0  0  0  0  0  0  0  0
   11.4960   -1.1984   22.3201 C   0  0  0  0  0  0  0  0  0  0  0  0
   13.1894    0.2309   23.2569 C   0  0  0  0  0  0  0  0  0  0  0  0
   12.2265    0.8558   24.0301 C   0  0  0  0  0  0  0  0  0  0  0  0
   10.8859    0.4855   23.9460 C   0  0  0  0  0  0  0  0  0  0  0  0
    9.8642    1.2098   24.7955 C   0  0  1  0  0  0  0  0  0  0  0  0
    8.4848    0.9727   24.3417 N   0  0  2  0  0  0  0  0  0  0  0  0
    7.4886    1.5934   25.2068 C   0  0  1  0  0  0  0  0  0  0  0  0
    6.7955    2.7973   24.5913 C   0  0  0  0  0  0  0  0  0  0  0  0
    5.9430    3.4125   25.2265 O   0  0  0  0  0  0  0  0  0  0  0  0
    7.1403    3.1330   23.3510 N   0  0  0  0  0  0  0  0  0  0  0  0
    6.5126    4.2291   22.6385 C   0  0  1  0  0  0  0  0  0  0  0  0
   10.5150   -0.5469   23.0696 C   0  0  0  0  0  0  0  0  0  0  0  0
    9.0499   -0.8949   22.8940 C   0  0  1  0  0  0  0  0  0  0  0  0
    8.2516   -0.4538   24.1211 C   0  0  2  0  0  0  0  0  0  0  0  0
    8.5181   -0.1375   21.6743 C   0  0  0  0  0  0  0  0  0  0  0  0
    8.9674    0.9571   21.3354 O   0  0  0  0  0  0  0  0  0  0  0  0
    7.4730   -0.7375   21.0547 N   0  0  0  0  0  0  0  0  0  0  0  0
    6.6928   -0.2446   19.9859 C   0  0  0  0  0  0  0  0  0  0  0  0
    5.5751    0.5913   20.2987 C   0  0  0  0  0  0  0  0  0  0  0  0
    5.0704    0.7660   21.6104 C   0  0  0  0  0  0  0  0  0  0  0  0
    4.0003    1.5761   21.8502 C   0  0  0  0  0  0  0  0  0  0  0  0
    3.4099    2.2349   20.7976 C   0  0  0  0  0  0  0  0  0  0  0  0
    2.3621    3.0577   21.0663 F   0  0  0  0  0  0  0  0  0  0  0  0
    3.8238    2.1199   19.5109 C   0  0  0  0  0  0  0  0  0  0  0  0
    4.9294    1.2803   19.2300 C   0  0  0  0  0  0  0  0  0  0  0  0
    5.4303    1.0794   17.9180 C   0  0  0  0  0  0  0  0  0  0  0  0
    6.4662    0.3025   17.6261 N   0  0  0  0  0  0  0  0  0  0  0  0
    7.0697   -0.3306   18.6441 C   0  0  0  0  0  0  0  0  0  0  0  0
   11.2280   -2.0175   21.6693 H   0  0  0  0  0  0  0  0  0  0  0  0
   14.2228    0.5398   23.3131 H   0  0  0  0  0  0  0  0  0  0  0  0
   12.5188    1.6428   24.7095 H   0  0  0  0  0  0  0  0  0  0  0  0
    9.9585    0.8614   25.8345 H   0  0  0  0  0  0  0  0  0  0  0  0
   10.0698    2.2894   24.7506 H   0  0  0  0  0  0  0  0  0  0  0  0
    8.4017    1.4154   23.4488 H   0  0  0  0  0  0  0  0  0  0  0  0
    6.7237    0.8406   25.4482 H   0  0  0  0  0  0  0  0  0  0  0  0
    7.9883    1.9180   26.1315 H   0  0  0  0  0  0  0  0  0  0  0  0
    7.8590    2.6099   22.8929 H   0  0  0  0  0  0  0  0  0  0  0  0
    6.9575    4.3183   21.6364 H   0  0  0  0  0  0  0  0  0  0  0  0
    5.4339    4.0354   22.5447 H   0  0  0  0  0  0  0  0  0  0  0  0
    6.6700    5.1653   23.1942 H   0  0  0  0  0  0  0  0  0  0  0  0
    8.9345   -1.9781   22.7414 H   0  0  0  0  0  0  0  0  0  0  0  0
    7.1798   -0.6317   23.9494 H   0  0  0  0  0  0  0  0  0  0  0  0
    8.5814   -1.0237   25.0021 H   0  0  0  0  0  0  0  0  0  0  0  0
    7.2229   -1.6431   21.3974 H   0  0  0  0  0  0  0  0  0  0  0  0
    5.5407    0.2492   22.4339 H   0  0  0  0  0  0  0  0  0  0  0  0
    3.6213    1.6988   22.8540 H   0  0  0  0  0  0  0  0  0  0  0  0
    3.3219    2.6561   18.7190 H   0  0  0  0  0  0  0  0  0  0  0  0
    4.9373    1.5912   17.1047 H   0  0  0  0  0  0  0  0  0  0  0  0
    7.9161   -0.9577   18.4061 H   0  0  0  0  0  0  0  0  0  0  0  0
  1  2  1  0
  2  3  2  0
  2  4  1  0
  3 14  1  0
  3 31  1  0
  4  5  2  0
  4 32  1  0
  5  6  1  0
  5 33  1  0
  6  7  1  0
  6 14  2  0
  7  8  1  0
  7 34  1  1
  7 35  1  0
  8  9  1  0
  8 16  1  0
  8 36  1  6
  9 10  1  0
  9 37  1  1
  9 38  1  0
 10 11  2  0
 10 12  1  0
 12 13  1  0
 12 39  1  0
 13 40  1  6
 13 41  1  0
 13 42  1  0
 14 15  1  0
 15 16  1  0
 15 17  1  0
 15 43  1  6
 16 44  1  6
 16 45  1  0
 17 18  2  0
 17 19  1  0
 19 20  1  0
 19 46  1  0
 20 21  2  0
 20 30  1  0
 21 22  1  0
 21 27  1  0
 22 23  2  0
 22 47  1  0
 23 24  1  0
 23 48  1  0
 24 25  1  0
 24 26  2  0
 26 27  1  0
 26 49  1  0
 27 28  2  0
 28 29  1  0
 28 50  1  0
 29 30  2  0
 30 51  1  0
M  CHG  1   8   1
M  END
$$$$
