LIG(A-305)
     RDKit          3D

 38 40  0  0  0  0  0  0  0  0999 V2000
    9.1207    0.5818   20.8953 O   0  0  0  0  0  0  0  0  0  0  0  0
    8.5127   -0.4682   21.0964 C   0  0  0  0  0  0  0  0  0  0  0  0
    8.9329   -1.4491   22.1754 C   0  0  1  0  0  0  0  0  0  0  0  0
   10.3259   -1.0821   22.6302 C   0  0  0  0  0  0  0  0  0  0  0  0
   11.4389   -1.5441   21.9341 C   0  0  0  0  0  0  0  0  0  0  0  0
   12.6909   -1.0561   22.2400 C   0  0  0  0  0  0  0  0  0  0  0  0
   14.0578   -1.6041   21.3139 Cl  0  0  0  0  0  0  0  0  0  0  0  0
   12.8800   -0.1250   23.2419 C   0  0  0  0  0  0  0  0  0  0  0  0
   11.7880    0.3170   23.9690 C   0  0  0  0  0  0  0  0  0  0  0  0
   10.5180   -0.1710   23.6702 C   0  0  0  0  0  0  0  0  0  0  0  0
    9.3801    0.1700   24.3473 O   0  0  0  0  0  0  0  0  0  0  0  0
    9.4722    1.2000   25.3312 C   0  0  1  0  0  0  0  0  0  0  0  0
    7.3997   -0.8363   20.4245 N   0  0  0  0  0  0  0  0  0  0  0  0
    6.6646   -0.0973   19.4846 C   0  0  0  0  0  0  0  0  0  0  0  0
    5.5056    0.5997   19.9337 C   0  0  0  0  0  0  0  0  0  0  0  0
    5.0727    0.6237   21.2837 C   0  0  0  0  0  0  0  0  0  0  0  0
    3.9728    1.3407   21.6558 C   0  0  0  0  0  0  0  0  0  0  0  0
    3.2477    2.0587   20.7198 C   0  0  0  0  0  0  0  0  0  0  0  0
    3.6305    2.0816   19.4128 C   0  0  0  0  0  0  0  0  0  0  0  0
    4.7695    1.3596   18.9817 C   0  0  0  0  0  0  0  0  0  0  0  0
    5.2443    1.3806   17.6486 C   0  0  0  0  0  0  0  0  0  0  0  0
    6.3223    0.7276   17.2306 N   0  0  0  0  0  0  0  0  0  0  0  0
    7.0044    0.0136   18.1365 C   0  0  0  0  0  0  0  0  0  0  0  0
    8.2362   -1.3897   23.0245 H   0  0  0  0  0  0  0  0  0  0  0  0
    8.9308   -2.4719   21.7703 H   0  0  0  0  0  0  0  0  0  0  0  0
   11.3217   -2.2836   21.1558 H   0  0  0  0  0  0  0  0  0  0  0  0
   13.8684    0.2540   23.4559 H   0  0  0  0  0  0  0  0  0  0  0  0
   11.9201    1.0364   24.7637 H   0  0  0  0  0  0  0  0  0  0  0  0
    8.4842    1.3617   25.7871 H   0  0  0  0  0  0  0  0  0  0  0  0
   10.1903    0.9009   26.1089 H   0  0  0  0  0  0  0  0  0  0  0  0
    9.8134    2.1315   24.8559 H   0  0  0  0  0  0  0  0  0  0  0  0
    7.0551   -1.7539   20.6226 H   0  0  0  0  0  0  0  0  0  0  0  0
    5.6215    0.0665   22.0285 H   0  0  0  0  0  0  0  0  0  0  0  0
    3.6647    1.3483   22.6909 H   0  0  0  0  0  0  0  0  0  0  0  0
    2.3696    2.6061   21.0293 H   0  0  0  0  0  0  0  0  0  0  0  0
    3.0596    2.6562   18.6984 H   0  0  0  0  0  0  0  0  0  0  0  0
    4.6950    1.9649   16.9254 H   0  0  0  0  0  0  0  0  0  0  0  0
    7.8829   -0.5153   17.7975 H   0  0  0  0  0  0  0  0  0  0  0  0
  1  2  2  0
  2  3  1  0
  2 13  1  0
  3  4  1  0
  3 24  1  1
  3 25  1  0
  4  5  2  0
  4 10  1  0
  5  6  1  0
  5 26  1  0
  6  7  1  0
  6  8  2  0
  8  9  1  0
  8 27  1  0
  9 10  2  0
  9 28  1  0
 10 11  1  0
 11 12  1  0
 12 29  1  1
 12 30  1  0
 12 31  1  0
 13 14  1  0
 13 32  1  0
 14 15  2  0
 14 23  1  0
 15 16  1  0
 15 20  1  0
 16 17  2  0
 16 33  1  0
 17 18  1  0
 17 34  1  0
 18 19  2  0
 18 35  1  0
 19 20  1  0
 19 36  1  0
 20 21  2  0
 21 22  1  0
 21 37  1  0
 22 23  2  0
 23 38  1  0
M  END
$$$$
