LIG(A-306)
     RDKit          3D

 43 46  0  0  1  0  0  0  0  0999 V2000
    9.0518    1.0083   21.0915 O   0  0  0  0  0  0  0  0  0  0  0  0
    8.5114    0.0222   21.5678 C   0  0  0  0  0  0  0  0  0  0  0  0
    9.1003   -0.6731   22.8209 C   0  0  1  0  0  0  0  0  0  0  0  0
   10.5715   -0.3897   23.0326 C   0  0  0  0  0  0  0  0  0  0  0  0
   11.5360   -0.9525   22.1998 C   0  0  0  0  0  0  0  0  0  0  0  0
   12.8486   -0.5209   22.2612 C   0  0  0  0  0  0  0  0  0  0  0  0
   14.0236   -1.2406   21.2089 Cl  0  0  0  0  0  0  0  0  0  0  0  0
   13.2177    0.4744   23.1492 C   0  0  0  0  0  0  0  0  0  0  0  0
   14.8720    0.9770   23.2707 Cl  0  0  0  0  0  0  0  0  0  0  0  0
   12.2792    1.0546   23.9825 C   0  0  0  0  0  0  0  0  0  0  0  0
   10.9711    0.6142   23.9194 C   0  0  0  0  0  0  0  0  0  0  0  0
   10.1087    1.1990   24.8165 O   0  0  0  0  0  0  0  0  0  0  0  0
    8.7178    1.2006   24.4322 C   0  0  1  0  0  0  0  0  0  0  0  0
    8.2427   -0.1669   23.9879 C   0  0  2  0  0  0  0  0  0  0  0  0
    8.9105   -2.0525   22.5318 O   0  0  0  0  0  0  0  0  0  0  0  0
    9.1451   -2.9777   23.6024 C   0  0  1  0  0  0  0  0  0  0  0  0
    7.3701   -0.5158   21.0907 N   0  0  0  0  0  0  0  0  0  0  0  0
    6.6467   -0.0310   19.9776 C   0  0  0  0  0  0  0  0  0  0  0  0
    5.5292    0.8214   20.2205 C   0  0  0  0  0  0  0  0  0  0  0  0
    5.0673    1.1618   21.5182 C   0  0  0  0  0  0  0  0  0  0  0  0
    3.9922    1.9876   21.6868 C   0  0  0  0  0  0  0  0  0  0  0  0
    3.3218    2.5108   20.5877 C   0  0  0  0  0  0  0  0  0  0  0  0
    3.7228    2.2037   19.3183 C   0  0  0  0  0  0  0  0  0  0  0  0
    4.8360    1.3567   19.0982 C   0  0  0  0  0  0  0  0  0  0  0  0
    5.3071    1.0129   17.8076 C   0  0  0  0  0  0  0  0  0  0  0  0
    6.3436    0.2147   17.5824 N   0  0  0  0  0  0  0  0  0  0  0  0
    6.9885   -0.2825   18.6498 C   0  0  0  0  0  0  0  0  0  0  0  0
   11.2576   -1.7293   21.5032 H   0  0  0  0  0  0  0  0  0  0  0  0
   12.5635    1.8374   24.6700 H   0  0  0  0  0  0  0  0  0  0  0  0
    8.1134    1.5227   25.2929 H   0  0  0  0  0  0  0  0  0  0  0  0
    8.5810    1.9094   23.6022 H   0  0  0  0  0  0  0  0  0  0  0  0
    8.3229   -0.8706   24.8297 H   0  0  0  0  0  0  0  0  0  0  0  0
    7.1933   -0.0996   23.6650 H   0  0  0  0  0  0  0  0  0  0  0  0
    8.9640   -4.0031   23.2478 H   0  0  0  0  0  0  0  0  0  0  0  0
   10.1867   -2.8866   23.9440 H   0  0  0  0  0  0  0  0  0  0  0  0
    8.4645   -2.7528   24.4368 H   0  0  0  0  0  0  0  0  0  0  0  0
    7.0077   -1.3203   21.5612 H   0  0  0  0  0  0  0  0  0  0  0  0
    5.5728    0.7624   22.3850 H   0  0  0  0  0  0  0  0  0  0  0  0
    3.6600    2.2363   22.6838 H   0  0  0  0  0  0  0  0  0  0  0  0
    2.4764    3.1657   20.7384 H   0  0  0  0  0  0  0  0  0  0  0  0
    3.1855    2.6110   18.4745 H   0  0  0  0  0  0  0  0  0  0  0  0
    4.7910    1.4259   16.9535 H   0  0  0  0  0  0  0  0  0  0  0  0
    7.8362   -0.9259   18.4659 H   0  0  0  0  0  0  0  0  0  0  0  0
  1  2  2  0
  2  3  1  0
  2 17  1  0
  3  4  1  0
  3 14  1  0
  3 15  1  6
  4  5  2  0
  4 11  1  0
  5  6  1  0
  5 28  1  0
  6  7  1  0
  6  8  2  0
  8  9  1  0
  8 10  1  0
 10 11  2  0
 10 29  1  0
 11 12  1  0
 12 13  1  0
 13 14  1  0
 13 30  1  1
 13 31  1  0
 14 32  1  1
 14 33  1  0
 15 16  1  0
 16 34  1  6
 16 35  1  0
 16 36  1  0
 17 18  1  0
 17 37  1  0
 18 19  2  0
 18 27  1  0
 19 20  1  0
 19 24  1  0
 20 21  2  0
 20 38  1  0
 21 22  1  0
 21 39  1  0
 22 23  2  0
 22 40  1  0
 23 24  1  0
 23 41  1  0
 24 25  2  0
 25 26  1  0
 25 42  1  0
 26 27  2  0
 27 43  1  0
M  END
$$$$
