LIG(A-305)
     RDKit          3D

 32 33  0  0  1  0  0  0  0  0999 V2000
    6.7988   -4.3891   20.9702 C   0  0  0  0  0  0  0  0  0  0  0  0
    8.0998   -3.7252   20.5761 C   0  0  1  0  0  0  0  0  0  0  0  0
    7.6159   -4.5892   23.2651 C   0  0  0  0  0  0  0  0  0  0  0  0
    8.0880   -3.4122   23.8401 C   0  0  0  0  0  0  0  0  0  0  0  0
    9.1170   -3.4603   24.7680 C   0  0  0  0  0  0  0  0  0  0  0  0
    9.6460   -4.6773   25.0960 C   0  0  0  0  0  0  0  0  0  0  0  0
    9.2069   -5.8503   24.5530 C   0  0  0  0  0  0  0  0  0  0  0  0
    8.1759   -5.8092   23.6301 C   0  0  0  0  0  0  0  0  0  0  0  0
    5.1719   -4.7481   22.7922 C   0  0  2  0  0  0  0  0  0  0  0  0
    5.0190   -4.3911   24.2703 C   0  0  1  0  0  0  0  0  0  0  0  0
    4.2590   -5.2241   24.9753 C   0  0  1  0  0  0  0  0  0  0  0  0
    4.7528   -6.2191   22.6282 C   0  0  1  0  0  0  0  0  0  0  0  0
   10.6630   -4.7254   25.9969 F   0  0  0  0  0  0  0  0  0  0  0  0
    6.5418   -4.5531   22.3142 N   0  0  0  0  0  0  0  0  0  0  0  0
    6.0137   -4.7741   20.1112 O   0  0  0  0  0  0  0  0  0  0  0  0
    2.7128   -7.1360   24.0613 O   0  0  0  0  0  0  0  0  0  0  0  0
    4.9769   -7.7401   24.7962 O   0  0  0  0  0  0  0  0  0  0  0  0
    4.0989   -6.7751   24.1883 S   0  0  2  0  0  0  0  0  0  0  0  0
    8.1687   -3.6746   19.4794 H   0  0  0  0  0  0  0  0  0  0  0  0
    8.1329   -2.7077   20.9928 H   0  0  0  0  0  0  0  0  0  0  0  0
    8.9439   -4.3103   20.9698 H   0  0  0  0  0  0  0  0  0  0  0  0
    7.6531   -2.4631   23.5636 H   0  0  0  0  0  0  0  0  0  0  0  0
    9.4927   -2.5553   25.2221 H   0  0  0  0  0  0  0  0  0  0  0  0
    9.6547   -6.7910   24.8376 H   0  0  0  0  0  0  0  0  0  0  0  0
    7.8060   -6.7250   23.1931 H   0  0  0  0  0  0  0  0  0  0  0  0
    4.4847   -4.1209   22.2054 H   0  0  0  0  0  0  0  0  0  0  0  0
    6.0213   -4.3779   24.7233 H   0  0  0  0  0  0  0  0  0  0  0  0
    4.5744   -3.3870   24.3343 H   0  0  0  0  0  0  0  0  0  0  0  0
    4.7154   -5.3720   25.9651 H   0  0  0  0  0  0  0  0  0  0  0  0
    3.2597   -4.7802   25.0951 H   0  0  0  0  0  0  0  0  0  0  0  0
    3.9823   -6.3041   21.8478 H   0  0  0  0  0  0  0  0  0  0  0  0
    5.6255   -6.8281   22.3498 H   0  0  0  0  0  0  0  0  0  0  0  0
  1  2  1  0
  1 14  1  0
  1 15  2  0
  2 19  1  6
  2 20  1  0
  2 21  1  0
  3  4  2  0
  3  8  1  0
  3 14  1  0
  4  5  1  0
  4 22  1  0
  5  6  2  0
  5 23  1  0
  6  7  1  0
  6 13  1  0
  7  8  2  0
  7 24  1  0
  8 25  1  0
  9 10  1  0
  9 12  1  0
  9 14  1  0
  9 26  1  6
 10 11  1  0
 10 27  1  1
 10 28  1  0
 18 11  1  1
 11 29  1  1
 11 30  1  0
 12 18  1  0
 12 31  1  6
 12 32  1  0
 16 18  2  0
 17 18  2  0
M  END
$$$$
