LIG(A-306)
     RDKit          3D

 52 56  0  0  1  0  0  0  0  0999 V2000
   14.1249   -1.6007   21.3168 Cl  0  0  0  0  0  0  0  0  0  0  0  0
   12.9445   -0.7615   22.2867 C   0  0  0  0  0  0  0  0  0  0  0  0
   11.6126   -1.1204   22.1862 C   0  0  0  0  0  0  0  0  0  0  0  0
   13.3626    0.2264   23.1483 C   0  0  0  0  0  0  0  0  0  0  0  0
   12.4305    0.8468   23.9574 C   0  0  0  0  0  0  0  0  0  0  0  0
   11.0806    0.4973   23.9045 C   0  0  0  0  0  0  0  0  0  0  0  0
   10.1173    1.1542   24.8674 C   0  0  1  0  0  0  0  0  0  0  0  0
    8.7209    0.9524   24.4673 N   0  0  0  0  0  0  0  0  0  0  0  0
    7.7640    1.8901   24.5832 C   0  0  0  0  0  0  0  0  0  0  0  0
    6.5697    1.6197   24.5483 O   0  0  0  0  0  0  0  0  0  0  0  0
    8.1941    3.2967   24.7396 C   0  0  0  0  0  0  0  0  0  0  0  0
    8.8510    3.9389   25.7905 C   0  0  0  0  0  0  0  0  0  0  0  0
    9.0715    5.2315   25.3349 C   0  0  0  0  0  0  0  0  0  0  0  0
    8.5962    5.4287   24.1100 N   0  0  0  0  0  0  0  0  0  0  0  0
    8.0402    4.2323   23.7609 N   0  0  0  0  0  0  0  0  0  0  0  0
    7.3337    4.1333   22.4893 C   0  0  1  0  0  0  0  0  0  0  0  0
   10.6638   -0.4829   22.9887 C   0  0  0  0  0  0  0  0  0  0  0  0
    9.1904   -0.8293   22.8642 C   0  0  1  0  0  0  0  0  0  0  0  0
    8.4324   -0.4445   24.1353 C   0  0  2  0  0  0  0  0  0  0  0  0
    8.6271   -0.0115   21.7024 C   0  0  0  0  0  0  0  0  0  0  0  0
    9.1324    1.0552   21.3437 O   0  0  0  0  0  0  0  0  0  0  0  0
    7.5387   -0.5575   21.1102 N   0  0  0  0  0  0  0  0  0  0  0  0
    6.8310   -0.0753   19.9866 C   0  0  0  0  0  0  0  0  0  0  0  0
    5.7053    0.7835   20.1944 C   0  0  0  0  0  0  0  0  0  0  0  0
    5.1234    1.0285   21.4640 C   0  0  0  0  0  0  0  0  0  0  0  0
    4.0173    1.8230   21.5916 C   0  0  0  0  0  0  0  0  0  0  0  0
    3.4484    2.4285   20.4767 C   0  0  0  0  0  0  0  0  0  0  0  0
    3.9760    2.2299   19.2324 C   0  0  0  0  0  0  0  0  0  0  0  0
    5.1047    1.3890   19.0542 C   0  0  0  0  0  0  0  0  0  0  0  0
    5.6406    1.0739   17.7818 C   0  0  0  0  0  0  0  0  0  0  0  0
    6.6625    0.2511   17.5869 N   0  0  0  0  0  0  0  0  0  0  0  0
    7.2334   -0.2990   18.6684 C   0  0  0  0  0  0  0  0  0  0  0  0
   11.3080   -1.8891   21.4914 H   0  0  0  0  0  0  0  0  0  0  0  0
   14.4032    0.5123   23.1913 H   0  0  0  0  0  0  0  0  0  0  0  0
   12.7525    1.6163   24.6434 H   0  0  0  0  0  0  0  0  0  0  0  0
   10.2661    0.7234   25.8685 H   0  0  0  0  0  0  0  0  0  0  0  0
   10.3259    2.2338   24.8981 H   0  0  0  0  0  0  0  0  0  0  0  0
    9.1270    3.5218   26.7477 H   0  0  0  0  0  0  0  0  0  0  0  0
    9.5742    5.9932   25.9126 H   0  0  0  0  0  0  0  0  0  0  0  0
    6.2730    3.9087   22.6751 H   0  0  0  0  0  0  0  0  0  0  0  0
    7.4171    5.0874   21.9484 H   0  0  0  0  0  0  0  0  0  0  0  0
    7.7783    3.3291   21.8847 H   0  0  0  0  0  0  0  0  0  0  0  0
    9.0687   -1.9039   22.6633 H   0  0  0  0  0  0  0  0  0  0  0  0
    7.3519   -0.5673   23.9700 H   0  0  0  0  0  0  0  0  0  0  0  0
    8.7524   -1.0928   24.9644 H   0  0  0  0  0  0  0  0  0  0  0  0
    7.1945   -1.4037   21.5169 H   0  0  0  0  0  0  0  0  0  0  0  0
    5.5603    0.5806   22.3443 H   0  0  0  0  0  0  0  0  0  0  0  0
    3.5819    1.9816   22.5672 H   0  0  0  0  0  0  0  0  0  0  0  0
    2.5814    3.0615   20.5956 H   0  0  0  0  0  0  0  0  0  0  0  0
    3.5304    2.7168   18.3776 H   0  0  0  0  0  0  0  0  0  0  0  0
    5.1884    1.5328   16.9150 H   0  0  0  0  0  0  0  0  0  0  0  0
    8.0678   -0.9656   18.5076 H   0  0  0  0  0  0  0  0  0  0  0  0
  1  2  1  0
  2  3  2  0
  2  4  1  0
  3 17  1  0
  3 33  1  0
  4  5  2  0
  4 34  1  0
  5  6  1  0
  5 35  1  0
  6  7  1  0
  6 17  2  0
  7  8  1  0
  7 36  1  1
  7 37  1  0
  8  9  1  0
  8 19  1  0
  9 10  2  0
  9 11  1  0
 11 12  2  0
 11 15  1  0
 12 13  1  0
 12 38  1  0
 13 14  2  0
 13 39  1  0
 14 15  1  0
 15 16  1  0
 16 40  1  1
 16 41  1  0
 16 42  1  0
 17 18  1  0
 18 19  1  0
 18 20  1  0
 18 43  1  6
 19 44  1  6
 19 45  1  0
 20 21  2  0
 20 22  1  0
 22 23  1  0
 22 46  1  0
 23 24  2  0
 23 32  1  0
 24 25  1  0
 24 29  1  0
 25 26  2  0
 25 47  1  0
 26 27  1  0
 26 48  1  0
 27 28  2  0
 27 49  1  0
 28 29  1  0
 28 50  1  0
 29 30  2  0
 30 31  1  0
 30 51  1  0
 31 32  2  0
 32 52  1  0
M  END
$$$$
