LIG(A-305)
     RDKit          3D

 51 54  0  0  0  0  0  0  0  0999 V2000
   13.5988   -1.7357   22.7399 S   0  0  0  0  0  0  0  0  0  0  0  0
    8.5943   -4.2223   26.2149 N   0  0  0  0  0  0  0  0  0  0  0  0
    7.5332   -0.2309   18.5057 N   0  0  0  0  0  0  0  0  0  0  0  0
    7.1754   -0.0958   19.8088 N   0  0  0  0  0  0  0  0  0  0  0  0
    8.2006   -5.6582   28.0810 C   0  0  1  0  0  0  0  0  0  0  0  0
   12.6382   -0.1356   24.4779 C   0  0  0  0  0  0  0  0  0  0  0  0
    3.7694    2.1013   19.3652 C   0  0  0  0  0  0  0  0  0  0  0  0
    9.0936    1.4693   20.9744 O   0  0  0  0  0  0  0  0  0  0  0  0
    8.1153   -1.8674   25.5818 C   0  0  0  0  0  0  0  0  0  0  0  0
    7.9295   -4.3502   27.3880 C   0  0  0  0  0  0  0  0  0  0  0  0
    5.7242    0.9662   18.5900 C   0  0  0  0  0  0  0  0  0  0  0  0
    9.0400   -1.0415   23.5166 C   0  0  0  0  0  0  0  0  0  0  0  0
    9.4649   -2.3296   23.2056 C   0  0  0  0  0  0  0  0  0  0  0  0
    9.2380   -3.3705   24.0837 C   0  0  0  0  0  0  0  0  0  0  0  0
   12.2818   -0.7577   22.2850 C   0  0  0  0  0  0  0  0  0  0  0  0
   11.8500    0.0384   23.3060 C   0  0  0  0  0  0  0  0  0  0  0  0
    5.2326    1.0284   20.9710 C   0  0  0  0  0  0  0  0  0  0  0  0
    4.5862    1.7142   18.3101 C   0  0  0  0  0  0  0  0  0  0  0  0
   10.5920    0.8574   23.1772 C   0  0  1  0  0  0  0  0  0  0  0  0
   13.6301   -1.0756   24.3298 C   0  0  0  0  0  0  0  0  0  0  0  0
    4.0896    1.7624   20.6802 C   0  0  0  0  0  0  0  0  0  0  0  0
    8.8907    0.3963   21.5155 C   0  0  0  0  0  0  0  0  0  0  0  0
    6.9757   -6.2381   28.7513 C   0  0  1  0  0  0  0  0  0  0  0  0
    9.4559    0.0664   22.7134 N   0  0  0  0  0  0  0  0  0  0  0  0
    7.1706   -3.5042   27.8540 O   0  0  0  0  0  0  0  0  0  0  0  0
    8.3292   -0.8254   24.6947 C   0  0  0  0  0  0  0  0  0  0  0  0
    8.5992   -3.1414   25.2968 C   0  0  0  0  0  0  0  0  0  0  0  0
    7.9986   -0.6597   20.8577 C   0  0  1  0  0  0  0  0  0  0  0  0
    6.0334    0.6383   19.9069 C   0  0  0  0  0  0  0  0  0  0  0  0
    6.6741    0.4061   17.7638 N   0  0  0  0  0  0  0  0  0  0  0  0
    9.1643   -5.0032   25.9590 H   0  0  0  0  0  0  0  0  0  0  0  0
    8.5670   -6.3800   27.3362 H   0  0  0  0  0  0  0  0  0  0  0  0
    8.9744   -5.4957   28.8457 H   0  0  0  0  0  0  0  0  0  0  0  0
   12.4735    0.4156   25.3920 H   0  0  0  0  0  0  0  0  0  0  0  0
    2.8748    2.6721   19.1648 H   0  0  0  0  0  0  0  0  0  0  0  0
    7.5711   -1.6910   26.4978 H   0  0  0  0  0  0  0  0  0  0  0  0
    9.9750   -2.5161   22.2721 H   0  0  0  0  0  0  0  0  0  0  0  0
    9.5588   -4.3691   23.8264 H   0  0  0  0  0  0  0  0  0  0  0  0
   11.8383   -0.7663   21.3003 H   0  0  0  0  0  0  0  0  0  0  0  0
    5.4887    0.7707   21.9881 H   0  0  0  0  0  0  0  0  0  0  0  0
    4.3424    1.9884   17.2943 H   0  0  0  0  0  0  0  0  0  0  0  0
   10.3467    1.2845   24.1607 H   0  0  0  0  0  0  0  0  0  0  0  0
   10.7724    1.6707   22.4589 H   0  0  0  0  0  0  0  0  0  0  0  0
   14.3300   -1.3599   25.1016 H   0  0  0  0  0  0  0  0  0  0  0  0
    3.4393    2.0753   21.4837 H   0  0  0  0  0  0  0  0  0  0  0  0
    7.2387   -7.1892   29.2374 H   0  0  0  0  0  0  0  0  0  0  0  0
    6.6020   -5.5313   29.5068 H   0  0  0  0  0  0  0  0  0  0  0  0
    6.1947   -6.4156   27.9972 H   0  0  0  0  0  0  0  0  0  0  0  0
    7.9433    0.1584   24.9174 H   0  0  0  0  0  0  0  0  0  0  0  0
    7.3445   -1.1000   21.6247 H   0  0  0  0  0  0  0  0  0  0  0  0
    8.6366   -1.4446   20.4255 H   0  0  0  0  0  0  0  0  0  0  0  0
  1 15  1  0
  1 20  1  0
  2 10  1  0
  2 27  1  0
  2 31  1  0
  3  4  1  0
  3 30  2  0
  4 28  1  0
  4 29  1  0
  5 10  1  0
  5 23  1  0
  5 32  1  6
  5 33  1  0
  6 16  1  0
  6 20  2  0
  6 34  1  0
  7 18  2  0
  7 21  1  0
  7 35  1  0
  8 22  2  0
  9 26  2  0
  9 27  1  0
  9 36  1  0
 10 25  2  0
 11 18  1  0
 11 29  2  0
 11 30  1  0
 12 13  2  0
 12 24  1  0
 12 26  1  0
 13 14  1  0
 13 37  1  0
 14 27  2  0
 14 38  1  0
 15 16  2  0
 15 39  1  0
 16 19  1  0
 17 21  2  0
 17 29  1  0
 17 40  1  0
 18 41  1  0
 19 24  1  0
 19 42  1  1
 19 43  1  0
 20 44  1  0
 21 45  1  0
 22 24  1  0
 22 28  1  0
 23 46  1  1
 23 47  1  0
 23 48  1  0
 26 49  1  0
 28 50  1  1
 28 51  1  0
M  END
$$$$
