LIG(A-306)
     RDKit          3D

 57 61  0  0  1  0  0  0  0  0999 V2000
    9.1023    6.0061   23.1830 N   0  0  0  0  0  0  0  0  0  0  0  0
    8.2024    5.3083   23.1490 C   0  0  0  0  0  0  0  0  0  0  0  0
    7.0277    4.4329   23.0432 C   0  0  2  0  0  0  0  0  0  0  0  0
    6.2099    4.8866   21.8034 C   0  0  1  0  0  0  0  0  0  0  0  0
    5.3199    5.7247   22.7164 C   0  0  1  0  0  0  0  0  0  0  0  0
    5.8312    4.9133   23.9078 C   0  0  1  0  0  0  0  0  0  0  0  0
    7.4611    2.9718   23.1363 C   0  0  1  0  0  0  0  0  0  0  0  0
    7.5604    2.1414   24.7131 S   0  0  2  0  0  0  0  0  0  0  0  0
    6.3149    1.4889   24.9677 O   0  0  0  0  0  0  0  0  0  0  0  0
    8.0663    3.0698   25.6754 O   0  0  0  0  0  0  0  0  0  0  0  0
    8.6800    0.9782   24.5309 N   0  0  0  0  0  0  0  0  0  0  0  0
   10.0735    1.2494   24.9055 C   0  0  1  0  0  0  0  0  0  0  0  0
    8.3731   -0.4244   24.1999 C   0  0  1  0  0  0  0  0  0  0  0  0
    9.1453   -0.7993   22.9340 C   0  0  2  0  0  0  0  0  0  0  0  0
   10.6175   -0.4568   23.0827 C   0  0  0  0  0  0  0  0  0  0  0  0
   11.0240    0.5797   23.9408 C   0  0  0  0  0  0  0  0  0  0  0  0
   12.3594    0.9774   23.9372 C   0  0  0  0  0  0  0  0  0  0  0  0
   13.2891    0.3550   23.1260 C   0  0  0  0  0  0  0  0  0  0  0  0
   11.5682   -1.1106   22.2986 C   0  0  0  0  0  0  0  0  0  0  0  0
   12.8854   -0.6937   22.3332 C   0  0  0  0  0  0  0  0  0  0  0  0
   14.0652   -1.5291   21.3618 Cl  0  0  0  0  0  0  0  0  0  0  0  0
    8.5875   -0.0618   21.7140 C   0  0  0  0  0  0  0  0  0  0  0  0
    9.1444    0.9292   21.2377 O   0  0  0  0  0  0  0  0  0  0  0  0
    7.4360   -0.5764   21.2128 N   0  0  0  0  0  0  0  0  0  0  0  0
    6.7001   -0.1058   20.1016 C   0  0  0  0  0  0  0  0  0  0  0  0
    5.5342    0.6973   20.3318 C   0  0  0  0  0  0  0  0  0  0  0  0
    4.9627    0.9129   21.6124 C   0  0  0  0  0  0  0  0  0  0  0  0
    3.8650    1.7108   21.7676 C   0  0  0  0  0  0  0  0  0  0  0  0
    3.2863    2.3397   20.6732 C   0  0  0  0  0  0  0  0  0  0  0  0
    3.7873    2.1498   19.4170 C   0  0  0  0  0  0  0  0  0  0  0  0
    4.9133    1.3146   19.2092 C   0  0  0  0  0  0  0  0  0  0  0  0
    5.4577    1.0518   17.9264 C   0  0  0  0  0  0  0  0  0  0  0  0
    6.5141    0.2785   17.7091 N   0  0  0  0  0  0  0  0  0  0  0  0
    7.1136   -0.2692   18.7776 C   0  0  0  0  0  0  0  0  0  0  0  0
    6.7861    5.4730   21.0726 H   0  0  0  0  0  0  0  0  0  0  0  0
    5.6843    4.0704   21.2861 H   0  0  0  0  0  0  0  0  0  0  0  0
    5.5815    6.7926   22.7491 H   0  0  0  0  0  0  0  0  0  0  0  0
    4.2424    5.6169   22.5230 H   0  0  0  0  0  0  0  0  0  0  0  0
    5.1544    4.1081   24.2297 H   0  0  0  0  0  0  0  0  0  0  0  0
    6.1182    5.5211   24.7785 H   0  0  0  0  0  0  0  0  0  0  0  0
    6.7524    2.3956   22.5234 H   0  0  0  0  0  0  0  0  0  0  0  0
    8.4643    2.9140   22.6887 H   0  0  0  0  0  0  0  0  0  0  0  0
   10.2474    2.3355   24.8889 H   0  0  0  0  0  0  0  0  0  0  0  0
   10.2567    0.8641   25.9194 H   0  0  0  0  0  0  0  0  0  0  0  0
    8.6796   -1.0780   25.0299 H   0  0  0  0  0  0  0  0  0  0  0  0
    7.2931   -0.5372   24.0239 H   0  0  0  0  0  0  0  0  0  0  0  0
    9.0468   -1.8822   22.7676 H   0  0  0  0  0  0  0  0  0  0  0  0
   12.6735    1.7866   24.5799 H   0  0  0  0  0  0  0  0  0  0  0  0
   14.3167    0.6870   23.1148 H   0  0  0  0  0  0  0  0  0  0  0  0
   11.2766   -1.9377   21.6683 H   0  0  0  0  0  0  0  0  0  0  0  0
    7.0669   -1.3785   21.6823 H   0  0  0  0  0  0  0  0  0  0  0  0
    5.4023    0.4390   22.4777 H   0  0  0  0  0  0  0  0  0  0  0  0
    3.4429    1.8539   22.7513 H   0  0  0  0  0  0  0  0  0  0  0  0
    2.4322    2.9850   20.8167 H   0  0  0  0  0  0  0  0  0  0  0  0
    3.3216    2.6401   18.5749 H   0  0  0  0  0  0  0  0  0  0  0  0
    4.9823    1.5101   17.0719 H   0  0  0  0  0  0  0  0  0  0  0  0
    7.9836   -0.8840   18.5998 H   0  0  0  0  0  0  0  0  0  0  0  0
  1  2  3  0
  3  2  1  1
  3  4  1  0
  3  6  1  0
  3  7  1  0
  4  5  1  0
  4 35  1  6
  4 36  1  0
  5  6  1  0
  5 37  1  1
  5 38  1  0
  6 39  1  1
  6 40  1  0
  7  8  1  0
  7 41  1  6
  7 42  1  0
  8  9  2  0
  8 10  2  0
  8 11  1  6
 11 12  1  0
 11 13  1  0
 12 16  1  0
 12 43  1  1
 12 44  1  0
 13 14  1  0
 13 45  1  1
 13 46  1  0
 14 15  1  0
 14 22  1  0
 14 47  1  6
 15 16  2  0
 15 19  1  0
 16 17  1  0
 17 18  2  0
 17 48  1  0
 18 20  1  0
 18 49  1  0
 19 20  2  0
 19 50  1  0
 20 21  1  0
 22 23  2  0
 22 24  1  0
 24 25  1  0
 24 51  1  0
 25 26  2  0
 25 34  1  0
 26 27  1  0
 26 31  1  0
 27 28  2  0
 27 52  1  0
 28 29  1  0
 28 53  1  0
 29 30  2  0
 29 54  1  0
 30 31  1  0
 30 55  1  0
 31 32  2  0
 32 33  1  0
 32 56  1  0
 33 34  2  0
 34 57  1  0
M  END
$$$$
