LIG(A-306)
     RDKit          3D

 40 42  0  0  1  0  0  0  0  0999 V2000
  -14.0887   -2.5919  -21.6043 Cl  0  0  0  0  0  0  0  0  0  0  0  0
  -12.9385   -1.6058  -22.4414 C   0  0  0  0  0  0  0  0  0  0  0  0
  -13.3632   -0.5899  -23.2865 C   0  0  0  0  0  0  0  0  0  0  0  0
  -15.0466   -0.2274  -23.4672 Cl  0  0  0  0  0  0  0  0  0  0  0  0
  -12.4353    0.1752  -23.9651 C   0  0  0  0  0  0  0  0  0  0  0  0
  -11.0866   -0.0645  -23.7896 C   0  0  0  0  0  0  0  0  0  0  0  0
  -11.5838   -1.8385  -22.2599 C   0  0  0  0  0  0  0  0  0  0  0  0
  -10.6438   -1.0614  -22.9325 C   0  0  0  0  0  0  0  0  0  0  0  0
   -9.1560   -1.2807  -22.7061 C   0  0  2  0  0  0  0  0  0  0  0  0
   -8.7615   -2.6991  -22.8494 N   0  0  1  0  0  0  0  0  0  0  0  0
   -8.1507   -2.9201  -24.1589 C   0  0  1  0  0  0  0  0  0  0  0  0
   -8.6577   -0.5080  -21.4581 C   0  0  0  0  0  0  0  0  0  0  0  0
   -9.1918    0.5421  -21.1029 O   0  0  0  0  0  0  0  0  0  0  0  0
   -7.5661   -1.0385  -20.8653 N   0  0  0  0  0  0  0  0  0  0  0  0
   -6.8015   -0.4668  -19.8303 C   0  0  0  0  0  0  0  0  0  0  0  0
   -5.7638    0.4520  -20.1825 C   0  0  0  0  0  0  0  0  0  0  0  0
   -5.3290    0.6845  -21.5153 C   0  0  0  0  0  0  0  0  0  0  0  0
   -4.3392    1.5881  -21.7845 C   0  0  0  0  0  0  0  0  0  0  0  0
   -3.7313    2.2992  -20.7599 C   0  0  0  0  0  0  0  0  0  0  0  0
   -4.1120    2.1118  -19.4620 C   0  0  0  0  0  0  0  0  0  0  0  0
   -5.1378    1.1851  -19.1369 C   0  0  0  0  0  0  0  0  0  0  0  0
   -5.5737    0.9416  -17.8111 C   0  0  0  0  0  0  0  0  0  0  0  0
   -6.5173    0.0687  -17.4849 N   0  0  0  0  0  0  0  0  0  0  0  0
   -7.1021   -0.6126  -18.4774 C   0  0  0  0  0  0  0  0  0  0  0  0
  -12.7635    0.9592  -24.6315 H   0  0  0  0  0  0  0  0  0  0  0  0
  -10.3657    0.5331  -24.3277 H   0  0  0  0  0  0  0  0  0  0  0  0
  -11.2566   -2.6244  -21.5953 H   0  0  0  0  0  0  0  0  0  0  0  0
   -8.6723   -0.7676  -23.5503 H   0  0  0  0  0  0  0  0  0  0  0  0
   -8.1036   -2.9334  -22.1336 H   0  0  0  0  0  0  0  0  0  0  0  0
   -9.5716   -3.2785  -22.7602 H   0  0  0  0  0  0  0  0  0  0  0  0
   -7.8611   -3.9770  -24.2553 H   0  0  0  0  0  0  0  0  0  0  0  0
   -8.8730   -2.6645  -24.9481 H   0  0  0  0  0  0  0  0  0  0  0  0
   -7.2582   -2.2850  -24.2590 H   0  0  0  0  0  0  0  0  0  0  0  0
   -7.2690   -1.9338  -21.1972 H   0  0  0  0  0  0  0  0  0  0  0  0
   -5.7871    0.1394  -22.3273 H   0  0  0  0  0  0  0  0  0  0  0  0
   -4.0271    1.7502  -22.8057 H   0  0  0  0  0  0  0  0  0  0  0  0
   -2.9495    3.0077  -20.9910 H   0  0  0  0  0  0  0  0  0  0  0  0
   -3.6290    2.6731  -18.6760 H   0  0  0  0  0  0  0  0  0  0  0  0
   -5.1076    1.5030  -17.0149 H   0  0  0  0  0  0  0  0  0  0  0  0
   -7.8644   -1.3293  -18.2097 H   0  0  0  0  0  0  0  0  0  0  0  0
  1  2  1  0
  2  3  2  0
  2  7  1  0
  3  4  1  0
  3  5  1  0
  5  6  2  0
  5 25  1  0
  6  8  1  0
  6 26  1  0
  7  8  2  0
  7 27  1  0
  8  9  1  0
  9 10  1  0
  9 12  1  0
  9 28  1  6
 10 11  1  0
 10 29  1  1
 10 30  1  0
 11 31  1  1
 11 32  1  0
 11 33  1  0
 12 13  2  0
 12 14  1  0
 14 15  1  0
 14 34  1  0
 15 16  2  0
 15 24  1  0
 16 17  1  0
 16 21  1  0
 17 18  2  0
 17 35  1  0
 18 19  1  0
 18 36  1  0
 19 20  2  0
 19 37  1  0
 20 21  1  0
 20 38  1  0
 21 22  2  0
 22 23  1  0
 22 39  1  0
 23 24  2  0
 24 40  1  0
M  CHG  1  10   1
M  END
$$$$
