LIG(A-305)
     RDKit          3D

 23 23  0  0  0  0  0  0  0  0999 V2000
   13.7444   -2.4774   24.3190 C   0  0  1  0  0  0  0  0  0  0  0  0
   13.3842   -0.2434   23.5369 C   0  0  0  0  0  0  0  0  0  0  0  0
   12.6302    1.0816   23.6239 C   0  0  0  0  0  0  0  0  0  0  0  0
   11.4132    1.1535   24.2860 C   0  0  0  0  0  0  0  0  0  0  0  0
   10.7422    2.3665   24.3680 C   0  0  0  0  0  0  0  0  0  0  0  0
   11.2961    3.4995   23.7829 C   0  0  0  0  0  0  0  0  0  0  0  0
   12.5141    3.4246   23.1209 C   0  0  0  0  0  0  0  0  0  0  0  0
   13.1791    2.2156   23.0459 C   0  0  0  0  0  0  0  0  0  0  0  0
    9.0170    5.0734   22.9390 N   0  0  0  0  0  0  0  0  0  0  0  0
   13.2624   -1.1804   24.5729 O   0  0  0  0  0  0  0  0  0  0  0  0
   14.0792   -0.4584   22.6069 O   0  0  0  0  0  0  0  0  0  0  0  0
   11.3180    6.1925   23.4769 O   0  0  0  0  0  0  0  0  0  0  0  0
   10.1531    5.4225   25.2810 O   0  0  0  0  0  0  0  0  0  0  0  0
   10.4390    5.0905   23.8840 S   0  0  2  0  0  0  0  0  0  0  0  0
   13.5887   -3.1074   25.2071 H   0  0  0  0  0  0  0  0  0  0  0  0
   13.2031   -2.9087   23.4640 H   0  0  0  0  0  0  0  0  0  0  0  0
   14.8186   -2.4302   24.0868 H   0  0  0  0  0  0  0  0  0  0  0  0
   10.9888    0.2684   24.7365 H   0  0  0  0  0  0  0  0  0  0  0  0
    9.7952    2.4294   24.8835 H   0  0  0  0  0  0  0  0  0  0  0  0
   12.9398    4.3071   22.6665 H   0  0  0  0  0  0  0  0  0  0  0  0
   14.1290    2.1541   22.5356 H   0  0  0  0  0  0  0  0  0  0  0  0
    9.0734    5.7844   22.2380 H   0  0  0  0  0  0  0  0  0  0  0  0
    8.9185    4.1802   22.5001 H   0  0  0  0  0  0  0  0  0  0  0  0
  1 10  1  0
  1 15  1  1
  1 16  1  0
  1 17  1  0
  2  3  1  0
  2 10  1  0
  2 11  2  0
  3  4  2  0
  3  8  1  0
  4  5  1  0
  4 18  1  0
  5  6  2  0
  5 19  1  0
  6  7  1  0
  6 14  1  0
  7  8  2  0
  7 20  1  0
  8 21  1  0
 14  9  1  6
  9 22  1  0
  9 23  1  0
 12 14  2  0
 13 14  2  0
M  END
$$$$
