LIG(A-305)
     RDKit          3D

 31 32  0  0  1  0  0  0  0  0999 V2000
   26.0423    4.7653   13.4297 C   0  0  0  0  0  0  0  0  0  0  0  0
   25.6151    4.3973   12.0037 C   0  0  0  0  0  0  0  0  0  0  0  0
   25.3632    5.3693   11.0417 C   0  0  0  0  0  0  0  0  0  0  0  0
   24.9950    5.0094    9.7598 C   0  0  0  0  0  0  0  0  0  0  0  0
   24.8738    3.6774    9.4298 C   0  0  0  0  0  0  0  0  0  0  0  0
   23.2485    2.6356    7.8050 C   0  0  0  0  0  0  0  0  0  0  0  0
   22.9374    2.2756    6.3380 C   0  0  2  0  0  0  0  0  0  0  0  0
   23.3402    1.0935    6.0940 C   0  0  1  0  0  0  0  0  0  0  0  0
   23.9951    1.1494    4.7279 C   0  0  1  0  0  0  0  0  0  0  0  0
   24.6753    2.5053    4.8188 C   0  0  1  0  0  0  0  0  0  0  0  0
   25.1328    2.7003   10.3728 C   0  0  0  0  0  0  0  0  0  0  0  0
   25.5019    3.0583   11.6598 C   0  0  0  0  0  0  0  0  0  0  0  0
   26.0715    6.1383   13.8977 N   0  0  0  0  0  0  0  0  0  0  0  0
   24.4966    3.3144    8.0868 N   0  0  0  0  0  0  0  0  0  0  0  0
   26.3782    3.9062   14.1817 O   0  0  0  0  0  0  0  0  0  0  0  0
   22.4986    2.3597    8.6840 O   0  0  0  0  0  0  0  0  0  0  0  0
   23.7764    3.2395    5.3439 O   0  0  0  0  0  0  0  0  0  0  0  0
   25.4560    6.4141   11.2989 H   0  0  0  0  0  0  0  0  0  0  0  0
   24.8026    5.7704    9.0180 H   0  0  0  0  0  0  0  0  0  0  0  0
   21.8650    2.4261    6.1449 H   0  0  0  0  0  0  0  0  0  0  0  0
   24.0680    0.7731    6.8540 H   0  0  0  0  0  0  0  0  0  0  0  0
   22.4906    0.3949    6.0824 H   0  0  0  0  0  0  0  0  0  0  0  0
   24.7225    0.3359    4.5900 H   0  0  0  0  0  0  0  0  0  0  0  0
   23.2523    1.1185    3.9172 H   0  0  0  0  0  0  0  0  0  0  0  0
   25.5699    2.4574    5.4571 H   0  0  0  0  0  0  0  0  0  0  0  0
   24.9557    2.8752    3.8215 H   0  0  0  0  0  0  0  0  0  0  0  0
   25.0473    1.6573   10.1064 H   0  0  0  0  0  0  0  0  0  0  0  0
   25.7017    2.2937   12.3959 H   0  0  0  0  0  0  0  0  0  0  0  0
   26.3685    6.3423   14.8304 H   0  0  0  0  0  0  0  0  0  0  0  0
   25.7947    6.8805   13.2874 H   0  0  0  0  0  0  0  0  0  0  0  0
   25.1121    3.5368    7.3307 H   0  0  0  0  0  0  0  0  0  0  0  0
  1  2  1  0
  1 13  1  0
  1 15  2  0
  2  3  2  0
  2 12  1  0
  3  4  1  0
  3 18  1  0
  4  5  2  0
  4 19  1  0
  5 11  1  0
  5 14  1  0
  6  7  1  0
  6 14  1  0
  6 16  2  0
  7  8  1  0
  7 17  1  0
  7 20  1  6
  8  9  1  0
  8 21  1  1
  8 22  1  0
  9 10  1  0
  9 23  1  6
  9 24  1  0
 10 17  1  0
 10 25  1  1
 10 26  1  0
 11 12  2  0
 11 27  1  0
 12 28  1  0
 13 29  1  0
 13 30  1  0
 14 31  1  0
M  END
$$$$
