LIG(A-306)
     RDKit          3D

 39 42  0  0  1  0  0  0  0  0999 V2000
   13.8635   -1.6381   21.6409 Cl  0  0  0  0  0  0  0  0  0  0  0  0
   12.5369   -0.9138   22.4874 C   0  0  0  0  0  0  0  0  0  0  0  0
   12.7728    0.0343   23.4610 C   0  0  0  0  0  0  0  0  0  0  0  0
   14.0449    0.4122   23.7152 F   0  0  0  0  0  0  0  0  0  0  0  0
   11.2407   -1.2601   22.1690 C   0  0  0  0  0  0  0  0  0  0  0  0
   10.1684   -0.6704   22.8344 C   0  0  0  0  0  0  0  0  0  0  0  0
   10.4493    0.2710   23.8350 C   0  0  0  0  0  0  0  0  0  0  0  0
   11.7484    0.6374   24.1433 C   0  0  0  0  0  0  0  0  0  0  0  0
    8.7372   -1.0401   22.5102 C   0  0  1  0  0  0  0  0  0  0  0  0
    7.9232   -0.9195   23.8076 C   0  0  1  0  0  0  0  0  0  0  0  0
    8.0950    0.4580   24.4084 C   0  0  1  0  0  0  0  0  0  0  0  0
    9.4780    0.8588   24.6114 O   0  0  0  0  0  0  0  0  0  0  0  0
    8.2525   -0.0957   21.4070 C   0  0  0  0  0  0  0  0  0  0  0  0
    8.5516    1.0990   21.3879 O   0  0  0  0  0  0  0  0  0  0  0  0
    7.5768   -0.7001   20.4052 N   0  0  0  0  0  0  0  0  0  0  0  0
    6.5903   -0.1944   19.5290 C   0  0  0  0  0  0  0  0  0  0  0  0
    5.6330    0.7831   19.9617 C   0  0  0  0  0  0  0  0  0  0  0  0
    5.2000    0.9231   21.3069 C   0  0  0  0  0  0  0  0  0  0  0  0
    4.1600    1.7497   21.6327 C   0  0  0  0  0  0  0  0  0  0  0  0
    3.5089    2.4865   20.6559 C   0  0  0  0  0  0  0  0  0  0  0  0
    3.8957    2.4028   19.3503 C   0  0  0  0  0  0  0  0  0  0  0  0
    4.9568    1.5468   18.9648 C   0  0  0  0  0  0  0  0  0  0  0  0
    5.2930    1.3086   17.6143 C   0  0  0  0  0  0  0  0  0  0  0  0
    6.1532    0.3911   17.2122 N   0  0  0  0  0  0  0  0  0  0  0  0
    6.7513   -0.3462   18.1540 C   0  0  0  0  0  0  0  0  0  0  0  0
   11.0556   -1.9939   21.3985 H   0  0  0  0  0  0  0  0  0  0  0  0
   11.9495    1.3793   24.9019 H   0  0  0  0  0  0  0  0  0  0  0  0
    8.6955   -2.0781   22.1483 H   0  0  0  0  0  0  0  0  0  0  0  0
    6.8592   -1.0885   23.5856 H   0  0  0  0  0  0  0  0  0  0  0  0
    8.2723   -1.6751   24.5267 H   0  0  0  0  0  0  0  0  0  0  0  0
    7.6209    1.1878   23.7357 H   0  0  0  0  0  0  0  0  0  0  0  0
    7.5861    0.4735   25.3834 H   0  0  0  0  0  0  0  0  0  0  0  0
    7.8131   -1.6609   20.2603 H   0  0  0  0  0  0  0  0  0  0  0  0
    5.7004    0.3673   22.0861 H   0  0  0  0  0  0  0  0  0  0  0  0
    3.8428    1.8289   22.6619 H   0  0  0  0  0  0  0  0  0  0  0  0
    2.6882    3.1325   20.9307 H   0  0  0  0  0  0  0  0  0  0  0  0
    3.3881    2.9948   18.6033 H   0  0  0  0  0  0  0  0  0  0  0  0
    4.8152    1.9169   16.8606 H   0  0  0  0  0  0  0  0  0  0  0  0
    7.4174   -1.1276   17.8190 H   0  0  0  0  0  0  0  0  0  0  0  0
  1  2  1  0
  2  3  2  0
  2  5  1  0
  3  4  1  0
  3  8  1  0
  5  6  2  0
  5 26  1  0
  6  7  1  0
  6  9  1  0
  7  8  2  0
  7 12  1  0
  8 27  1  0
  9 10  1  0
  9 13  1  0
  9 28  1  6
 10 11  1  0
 10 29  1  6
 10 30  1  0
 11 12  1  0
 11 31  1  6
 11 32  1  0
 13 14  2  0
 13 15  1  0
 15 16  1  0
 15 33  1  0
 16 17  2  0
 16 25  1  0
 17 18  1  0
 17 22  1  0
 18 19  2  0
 18 34  1  0
 19 20  1  0
 19 35  1  0
 20 21  2  0
 20 36  1  0
 21 22  1  0
 21 37  1  0
 22 23  2  0
 23 24  1  0
 23 38  1  0
 24 25  2  0
 25 39  1  0
M  END
$$$$
