LIG(A-306)
     RDKit          3D

 63 68  0  0  1  0  0  0  0  0999 V2000
    9.3113    1.2658   20.9543 O   0  0  0  0  0  0  0  0  0  0  0  0
    8.8447    0.3579   21.6223 C   0  0  0  0  0  0  0  0  0  0  0  0
    7.7425   -0.3235   21.2226 N   0  0  0  0  0  0  0  0  0  0  0  0
    6.9256    0.0073   20.1206 C   0  0  0  0  0  0  0  0  0  0  0  0
    5.7405    0.7756   20.3553 C   0  0  0  0  0  0  0  0  0  0  0  0
    5.2284    1.0594   21.6472 C   0  0  0  0  0  0  0  0  0  0  0  0
    4.1012    1.8153   21.8060 C   0  0  0  0  0  0  0  0  0  0  0  0
    3.4330    2.3314   20.7017 C   0  0  0  0  0  0  0  0  0  0  0  0
    3.8850    2.0857   19.4376 C   0  0  0  0  0  0  0  0  0  0  0  0
    5.0432    1.2945   19.2280 C   0  0  0  0  0  0  0  0  0  0  0  0
    5.5522    0.9957   17.9422 C   0  0  0  0  0  0  0  0  0  0  0  0
    6.6293    0.2564   17.7224 N   0  0  0  0  0  0  0  0  0  0  0  0
    7.2835   -0.2210   18.7905 C   0  0  0  0  0  0  0  0  0  0  0  0
    9.4219    0.0703   23.0174 C   0  0  1  0  0  0  0  0  0  0  0  0
   10.9647    0.1932   23.0178 C   0  0  0  0  0  0  0  0  0  0  0  0
   11.7692   -0.6142   22.2077 C   0  0  0  0  0  0  0  0  0  0  0  0
   13.1317   -0.3661   22.1347 C   0  0  0  0  0  0  0  0  0  0  0  0
   14.0980   -1.2612   20.9899 Cl  0  0  0  0  0  0  0  0  0  0  0  0
   13.7317    0.6205   22.8791 C   0  0  0  0  0  0  0  0  0  0  0  0
   12.9582    1.4041   23.7103 C   0  0  0  0  0  0  0  0  0  0  0  0
   11.5916    1.2088   23.7550 C   0  0  0  0  0  0  0  0  0  0  0  0
   10.8987    2.1548   24.4682 O   0  0  0  0  0  0  0  0  0  0  0  0
    9.5900    1.7639   24.8910 C   0  0  1  0  0  0  0  0  0  0  0  0
    8.7685    1.2814   23.7229 C   0  0  2  0  0  0  0  0  0  0  0  0
    8.9661   -1.1718   23.8124 C   0  0  1  0  0  0  0  0  0  0  0  0
    9.2458   -2.5141   23.1781 C   0  0  0  0  0  0  0  0  0  0  0  0
    9.2387   -2.6644   21.9660 O   0  0  0  0  0  0  0  0  0  0  0  0
    9.4567   -3.5466   24.0231 N   0  0  0  0  0  0  0  0  0  0  0  0
    8.5221   -4.6558   24.2838 C   0  0  2  0  0  0  0  0  0  0  0  0
    7.8823   -4.4548   25.6564 C   0  0  1  0  0  0  0  0  0  0  0  0
   10.5931   -3.7331   24.9269 C   0  0  1  0  0  0  0  0  0  0  0  0
   10.1833   -4.9812   25.7119 C   0  0  2  0  0  0  0  0  0  0  0  0
    9.4876   -5.7951   24.6165 C   0  0  1  0  0  0  0  0  0  0  0  0
    9.0405   -4.5522   26.5546 N   0  0  2  0  0  0  0  0  0  0  0  0
    8.7935   -5.4359   27.6952 C   0  0  1  0  0  0  0  0  0  0  0  0
    7.4864   -1.1304   21.7550 H   0  0  0  0  0  0  0  0  0  0  0  0
    5.7368    0.6724   22.5180 H   0  0  0  0  0  0  0  0  0  0  0  0
    3.7258    2.0136   22.7991 H   0  0  0  0  0  0  0  0  0  0  0  0
    2.5474    2.9327   20.8455 H   0  0  0  0  0  0  0  0  0  0  0  0
    3.3565    2.4969   18.5902 H   0  0  0  0  0  0  0  0  0  0  0  0
    5.0297    1.3956   17.0858 H   0  0  0  0  0  0  0  0  0  0  0  0
    8.1563   -0.8304   18.6078 H   0  0  0  0  0  0  0  0  0  0  0  0
   11.3328   -1.4249   21.6432 H   0  0  0  0  0  0  0  0  0  0  0  0
   14.7977    0.7810   22.8142 H   0  0  0  0  0  0  0  0  0  0  0  0
   13.4186    2.1656   24.3223 H   0  0  0  0  0  0  0  0  0  0  0  0
    9.6772    0.9531   25.6292 H   0  0  0  0  0  0  0  0  0  0  0  0
    9.0878    2.6271   25.3522 H   0  0  0  0  0  0  0  0  0  0  0  0
    7.7730    0.9863   24.0863 H   0  0  0  0  0  0  0  0  0  0  0  0
    8.6656    2.1021   22.9976 H   0  0  0  0  0  0  0  0  0  0  0  0
    9.4741   -1.1500   24.7878 H   0  0  0  0  0  0  0  0  0  0  0  0
    7.8793   -1.0926   23.9630 H   0  0  0  0  0  0  0  0  0  0  0  0
    7.8113   -4.8792   23.4745 H   0  0  0  0  0  0  0  0  0  0  0  0
    7.4009   -3.4686   25.7316 H   0  0  0  0  0  0  0  0  0  0  0  0
    7.1434   -5.2408   25.8712 H   0  0  0  0  0  0  0  0  0  0  0  0
   11.5243   -3.9028   24.3664 H   0  0  0  0  0  0  0  0  0  0  0  0
   10.7188   -2.8669   25.5930 H   0  0  0  0  0  0  0  0  0  0  0  0
   11.0024   -5.4987   26.2326 H   0  0  0  0  0  0  0  0  0  0  0  0
    8.9863   -6.6987   24.9932 H   0  0  0  0  0  0  0  0  0  0  0  0
   10.1515   -6.0649   23.7821 H   0  0  0  0  0  0  0  0  0  0  0  0
    9.2414   -3.6374   26.9051 H   0  0  0  0  0  0  0  0  0  0  0  0
    9.6894   -5.4721   28.3324 H   0  0  0  0  0  0  0  0  0  0  0  0
    7.9439   -5.0520   28.2790 H   0  0  0  0  0  0  0  0  0  0  0  0
    8.5612   -6.4477   27.3315 H   0  0  0  0  0  0  0  0  0  0  0  0
  1  2  2  0
  2  3  1  0
 14  2  1  6
  3  4  1  0
  3 36  1  0
  4  5  2  0
  4 13  1  0
  5  6  1  0
  5 10  1  0
  6  7  2  0
  6 37  1  0
  7  8  1  0
  7 38  1  0
  8  9  2  0
  8 39  1  0
  9 10  1  0
  9 40  1  0
 10 11  2  0
 11 12  1  0
 11 41  1  0
 12 13  2  0
 13 42  1  0
 14 15  1  0
 14 24  1  0
 14 25  1  0
 15 16  2  0
 15 21  1  0
 16 17  1  0
 16 43  1  0
 17 18  1  0
 17 19  2  0
 19 20  1  0
 19 44  1  0
 20 21  2  0
 20 45  1  0
 21 22  1  0
 22 23  1  0
 23 24  1  0
 23 46  1  1
 23 47  1  0
 24 48  1  1
 24 49  1  0
 25 26  1  0
 25 50  1  1
 25 51  1  0
 26 27  2  0
 26 28  1  0
 28 29  1  0
 28 31  1  0
 29 30  1  0
 29 33  1  0
 29 52  1  6
 30 34  1  0
 30 53  1  6
 30 54  1  0
 31 32  1  0
 31 55  1  6
 31 56  1  0
 32 33  1  0
 32 34  1  0
 32 57  1  1
 33 58  1  1
 33 59  1  0
 34 35  1  0
 34 60  1  1
 35 61  1  1
 35 62  1  0
 35 63  1  0
M  CHG  1  34   1
M  END
$$$$
