LIG(A-305)
     RDKit          3D

 38 40  0  0  0  0  0  0  0  0999 V2000
   13.8875   -1.9521   21.2197 Cl  0  0  0  0  0  0  0  0  0  0  0  0
   12.7167   -1.1620   22.2359 C   0  0  0  0  0  0  0  0  0  0  0  0
   13.1309   -0.1770   23.1098 C   0  0  0  0  0  0  0  0  0  0  0  0
   12.1821    0.4500   23.9029 C   0  0  0  0  0  0  0  0  0  0  0  0
   10.8440    0.1011   23.7972 C   0  0  0  0  0  0  0  0  0  0  0  0
   11.3907   -1.5229   22.1261 C   0  0  0  0  0  0  0  0  0  0  0  0
   10.4318   -0.8689   22.8922 C   0  0  0  0  0  0  0  0  0  0  0  0
    8.9648   -1.1098   22.6275 C   0  0  1  0  0  0  0  0  0  0  0  0
    8.5246   -0.3327   21.4025 C   0  0  0  0  0  0  0  0  0  0  0  0
    9.2926    0.4022   20.7934 O   0  0  0  0  0  0  0  0  0  0  0  0
    7.2136   -0.4097   21.1297 N   0  0  0  0  0  0  0  0  0  0  0  0
    6.5254   -0.0526   19.9568 C   0  0  0  0  0  0  0  0  0  0  0  0
    7.0662   -0.0667   18.6738 C   0  0  0  0  0  0  0  0  0  0  0  0
    6.5141    0.5094   17.5988 N   0  0  0  0  0  0  0  0  0  0  0  0
    5.3681    1.1584   17.7720 C   0  0  0  0  0  0  0  0  0  0  0  0
    5.2955    0.6475   20.1430 C   0  0  0  0  0  0  0  0  0  0  0  0
    4.7103    1.2865   19.0161 C   0  0  0  0  0  0  0  0  0  0  0  0
    3.5434    2.0646   19.2023 C   0  0  0  0  0  0  0  0  0  0  0  0
    2.9786    2.1916   20.4364 C   0  0  0  0  0  0  0  0  0  0  0  0
    4.6887    0.8135   21.4091 C   0  0  0  0  0  0  0  0  0  0  0  0
    3.5528    1.5686   21.5373 C   0  0  0  0  0  0  0  0  0  0  0  0
    2.8820    1.7596   22.7174 O   0  0  0  0  0  0  0  0  0  0  0  0
    3.3941    1.1366   23.8974 C   0  0  1  0  0  0  0  0  0  0  0  0
   14.1728    0.0996   23.1744 H   0  0  0  0  0  0  0  0  0  0  0  0
   12.4859    1.2123   24.6051 H   0  0  0  0  0  0  0  0  0  0  0  0
   10.1140    0.5893   24.4257 H   0  0  0  0  0  0  0  0  0  0  0  0
   11.0976   -2.3105   21.4477 H   0  0  0  0  0  0  0  0  0  0  0  0
    8.7968   -2.1835   22.4575 H   0  0  0  0  0  0  0  0  0  0  0  0
    8.3786   -0.7802   23.4980 H   0  0  0  0  0  0  0  0  0  0  0  0
    6.6437   -0.7732   21.8666 H   0  0  0  0  0  0  0  0  0  0  0  0
    8.0047   -0.5827   18.5349 H   0  0  0  0  0  0  0  0  0  0  0  0
    4.9105    1.6170   16.9079 H   0  0  0  0  0  0  0  0  0  0  0  0
    3.0947    2.5639   18.3564 H   0  0  0  0  0  0  0  0  0  0  0  0
    2.0808    2.7793   20.5589 H   0  0  0  0  0  0  0  0  0  0  0  0
    5.1225    0.3431   22.2791 H   0  0  0  0  0  0  0  0  0  0  0  0
    2.7489    1.3844   24.7531 H   0  0  0  0  0  0  0  0  0  0  0  0
    3.4137    0.0458   23.7569 H   0  0  0  0  0  0  0  0  0  0  0  0
    4.4144    1.4998   24.0903 H   0  0  0  0  0  0  0  0  0  0  0  0
  1  2  1  0
  2  3  2  0
  2  6  1  0
  3  4  1  0
  3 24  1  0
  4  5  2  0
  4 25  1  0
  5  7  1  0
  5 26  1  0
  6  7  2  0
  6 27  1  0
  7  8  1  0
  8  9  1  0
  8 28  1  6
  8 29  1  0
  9 10  2  0
  9 11  1  0
 11 12  1  0
 11 30  1  0
 12 13  2  0
 12 16  1  0
 13 14  1  0
 13 31  1  0
 14 15  2  0
 15 17  1  0
 15 32  1  0
 16 17  2  0
 16 20  1  0
 17 18  1  0
 18 19  2  0
 18 33  1  0
 19 21  1  0
 19 34  1  0
 20 21  2  0
 20 35  1  0
 21 22  1  0
 22 23  1  0
 23 36  1  1
 23 37  1  0
 23 38  1  0
M  END
$$$$
