LIG(A-305)
     RDKit          3D

 40 42  0  0  0  0  0  0  0  0999 V2000
    7.2480   -1.3689   21.5404 N   0  0  0  0  0  0  0  0  0  0  0  0
    4.7838    1.6409   18.3254 N   0  0  0  0  0  0  0  0  0  0  0  0
    7.7481   -2.4078   22.4324 C   0  0  1  0  0  0  0  0  0  0  0  0
    5.8318    0.8629   17.9073 C   0  0  0  0  0  0  0  0  0  0  0  0
    6.4157    1.1218   16.8523 O   0  0  0  0  0  0  0  0  0  0  0  0
   11.9481   -1.2669   22.3651 C   0  0  0  0  0  0  0  0  0  0  0  0
    9.2621   -2.3898   22.5064 C   0  0  1  0  0  0  0  0  0  0  0  0
   13.5521    0.3562   23.1189 C   0  0  0  0  0  0  0  0  0  0  0  0
    4.0110    0.4481   21.7305 C   0  0  0  0  0  0  0  0  0  0  0  0
   12.6352    0.8342   24.0389 C   0  0  0  0  0  0  0  0  0  0  0  0
   11.3702    0.2723   24.1271 C   0  0  0  0  0  0  0  0  0  0  0  0
    3.1059    2.3640   19.9134 C   0  0  0  0  0  0  0  0  0  0  0  0
    6.2429   -0.1691   18.8094 C   0  0  0  0  0  0  0  0  0  0  0  0
    4.6090    0.5390   20.4714 C   0  0  0  0  0  0  0  0  0  0  0  0
    5.6799   -0.3490   20.0334 C   0  0  0  0  0  0  0  0  0  0  0  0
    4.1609    1.5220   19.5654 C   0  0  0  0  0  0  0  0  0  0  0  0
    2.5100    2.2351   21.1565 C   0  0  0  0  0  0  0  0  0  0  0  0
    6.1090   -1.5109   20.8645 C   0  0  0  0  0  0  0  0  0  0  0  0
    9.7311   -1.2918   23.3343 N   0  0  0  0  0  0  0  0  0  0  0  0
    5.4270   -2.5329   20.9386 O   0  0  0  0  0  0  0  0  0  0  0  0
   13.2111   -0.6979   22.2920 C   0  0  0  0  0  0  0  0  0  0  0  0
   11.0141   -0.7748   23.2791 C   0  0  0  0  0  0  0  0  0  0  0  0
    2.9621    1.2921   22.0605 C   0  0  0  0  0  0  0  0  0  0  0  0
    7.7749   -0.5258   21.4329 H   0  0  0  0  0  0  0  0  0  0  0  0
    4.4413    2.3395   17.6886 H   0  0  0  0  0  0  0  0  0  0  0  0
    7.3383   -2.2427   23.4399 H   0  0  0  0  0  0  0  0  0  0  0  0
    7.4193   -3.3890   22.0592 H   0  0  0  0  0  0  0  0  0  0  0  0
   11.6874   -2.0895   21.7158 H   0  0  0  0  0  0  0  0  0  0  0  0
    9.6123   -3.3396   22.9367 H   0  0  0  0  0  0  0  0  0  0  0  0
    9.6702   -2.2746   21.4914 H   0  0  0  0  0  0  0  0  0  0  0  0
   14.5316    0.8055   23.0472 H   0  0  0  0  0  0  0  0  0  0  0  0
    4.3656   -0.2789   22.4461 H   0  0  0  0  0  0  0  0  0  0  0  0
   12.9064    1.6502   24.6925 H   0  0  0  0  0  0  0  0  0  0  0  0
   10.6620    0.6457   24.8519 H   0  0  0  0  0  0  0  0  0  0  0  0
    2.7556    3.1123   19.2178 H   0  0  0  0  0  0  0  0  0  0  0  0
    7.0362   -0.8351   18.5038 H   0  0  0  0  0  0  0  0  0  0  0  0
    1.6837    2.8777   21.4225 H   0  0  0  0  0  0  0  0  0  0  0  0
    9.3208   -1.2655   24.2458 H   0  0  0  0  0  0  0  0  0  0  0  0
   13.9321   -1.0806   21.5849 H   0  0  0  0  0  0  0  0  0  0  0  0
    2.4946    1.2124   23.0308 H   0  0  0  0  0  0  0  0  0  0  0  0
  1  3  1  0
  1 18  1  0
  1 24  1  0
  2  4  1  0
  2 16  1  0
  2 25  1  0
  3  7  1  0
  3 26  1  1
  3 27  1  0
  4  5  2  0
  4 13  1  0
  6 21  2  0
  6 22  1  0
  6 28  1  0
  7 19  1  0
  7 29  1  1
  7 30  1  0
  8 10  2  0
  8 21  1  0
  8 31  1  0
  9 14  2  0
  9 23  1  0
  9 32  1  0
 10 11  1  0
 10 33  1  0
 11 22  2  0
 11 34  1  0
 12 16  2  0
 12 17  1  0
 12 35  1  0
 13 15  2  0
 13 36  1  0
 14 15  1  0
 14 16  1  0
 15 18  1  0
 17 23  2  0
 17 37  1  0
 18 20  2  0
 19 22  1  0
 19 38  1  0
 21 39  1  0
 23 40  1  0
M  END
$$$$
