LIG(A-306)
     RDKit          3D

 59 62  0  0  1  0  0  0  0  0999 V2000
   14.2189   -1.5825   21.0668 Cl  0  0  0  0  0  0  0  0  0  0  0  0
   13.1178   -0.7645   22.1348 C   0  0  0  0  0  0  0  0  0  0  0  0
   11.7968   -1.1586   22.1638 C   0  0  0  0  0  0  0  0  0  0  0  0
   13.5797    0.2736   22.9147 C   0  0  0  0  0  0  0  0  0  0  0  0
   12.7017    0.9055   23.7747 C   0  0  0  0  0  0  0  0  0  0  0  0
   11.3587    0.5335   23.8307 C   0  0  0  0  0  0  0  0  0  0  0  0
   10.4326    1.2014   24.8177 C   0  0  1  0  0  0  0  0  0  0  0  0
    9.0256    1.1143   24.4017 N   0  0  2  0  0  0  0  0  0  0  0  0
    8.1136    1.8103   25.3017 C   0  0  1  0  0  0  0  0  0  0  0  0
    7.7525    3.1872   24.7716 C   0  0  0  0  0  0  0  0  0  0  0  0
    8.2194    4.2073   25.2735 O   0  0  0  0  0  0  0  0  0  0  0  0
    6.9955    3.2021   23.6816 N   0  0  0  0  0  0  0  0  0  0  0  0
    6.8574    4.3811   22.8435 C   0  0  1  0  0  0  0  0  0  0  0  0
   10.8938   -0.4806   22.9778 C   0  0  0  0  0  0  0  0  0  0  0  0
    9.4028   -0.7327   22.8368 C   0  0  1  0  0  0  0  0  0  0  0  0
    8.6607   -0.2687   24.0948 C   0  0  2  0  0  0  0  0  0  0  0  0
    8.9017   -0.0108   21.5797 C   0  0  0  0  0  0  0  0  0  0  0  0
    9.2707    1.1252   21.2897 O   0  0  0  0  0  0  0  0  0  0  0  0
    7.9428   -0.6809   20.8848 N   0  0  0  0  0  0  0  0  0  0  0  0
    7.0788   -0.1981   19.8627 C   0  0  0  0  0  0  0  0  0  0  0  0
    5.8987    0.4829   20.2877 C   0  0  0  0  0  0  0  0  0  0  0  0
    5.1147    1.1578   19.3097 C   0  0  0  0  0  0  0  0  0  0  0  0
    5.5287    1.0727   17.9577 C   0  0  0  0  0  0  0  0  0  0  0  0
    6.6097    0.4168   17.5537 N   0  0  0  0  0  0  0  0  0  0  0  0
    7.3548   -0.1881   18.4927 C   0  0  0  0  0  0  0  0  0  0  0  0
    5.4987    0.5419   21.6307 C   0  0  0  0  0  0  0  0  0  0  0  0
    4.4016    1.2659   22.0217 C   0  0  0  0  0  0  0  0  0  0  0  0
    3.6466    1.9488   21.0646 C   0  0  0  0  0  0  0  0  0  0  0  0
    3.9826    1.8977   19.7386 C   0  0  0  0  0  0  0  0  0  0  0  0
    4.1496    1.2249   23.4307 N   0  0  0  0  0  0  0  0  0  0  0  0
    3.0106    1.9559   24.3366 S   0  0  1  0  0  0  0  0  0  0  0  0
    3.7235    2.8510   25.1946 O   0  0  0  0  0  0  0  0  0  0  0  0
    2.0095    2.4848   23.4606 O   0  0  0  0  0  0  0  0  0  0  0  0
    2.2847    0.7029   25.3247 C   0  0  1  0  0  0  0  0  0  0  0  0
   11.4646   -1.9889   21.5583 H   0  0  0  0  0  0  0  0  0  0  0  0
   14.6112    0.5880   22.8549 H   0  0  0  0  0  0  0  0  0  0  0  0
   13.0608    1.6994   24.4129 H   0  0  0  0  0  0  0  0  0  0  0  0
   10.5442    0.7117   25.7963 H   0  0  0  0  0  0  0  0  0  0  0  0
   10.7119    2.2619   24.9044 H   0  0  0  0  0  0  0  0  0  0  0  0
    8.9731    1.6053   23.5321 H   0  0  0  0  0  0  0  0  0  0  0  0
    7.1942    1.2160   25.4089 H   0  0  0  0  0  0  0  0  0  0  0  0
    8.5956    1.9205   26.2842 H   0  0  0  0  0  0  0  0  0  0  0  0
    6.5016    2.3706   23.4274 H   0  0  0  0  0  0  0  0  0  0  0  0
    6.1841    4.1572   22.0029 H   0  0  0  0  0  0  0  0  0  0  0  0
    6.4392    5.2066   23.4382 H   0  0  0  0  0  0  0  0  0  0  0  0
    7.8445    4.6723   22.4550 H   0  0  0  0  0  0  0  0  0  0  0  0
    9.2370   -1.8128   22.7101 H   0  0  0  0  0  0  0  0  0  0  0  0
    7.5760   -0.3310   23.9231 H   0  0  0  0  0  0  0  0  0  0  0  0
    8.9358   -0.9157   24.9408 H   0  0  0  0  0  0  0  0  0  0  0  0
    7.8299   -1.6449   21.1253 H   0  0  0  0  0  0  0  0  0  0  0  0
    4.9288    1.5715   17.2107 H   0  0  0  0  0  0  0  0  0  0  0  0
    8.2405   -0.7101   18.1621 H   0  0  0  0  0  0  0  0  0  0  0  0
    6.0681    0.0045   22.3745 H   0  0  0  0  0  0  0  0  0  0  0  0
    2.7870    2.5242   21.3750 H   0  0  0  0  0  0  0  0  0  0  0  0
    3.3811    2.4250   19.0130 H   0  0  0  0  0  0  0  0  0  0  0  0
    4.3937    0.3335   23.8126 H   0  0  0  0  0  0  0  0  0  0  0  0
    1.5030    1.1436   25.9609 H   0  0  0  0  0  0  0  0  0  0  0  0
    1.8387   -0.0643   24.6745 H   0  0  0  0  0  0  0  0  0  0  0  0
    3.0569    0.2426   25.9586 H   0  0  0  0  0  0  0  0  0  0  0  0
  1  2  1  0
  2  3  2  0
  2  4  1  0
  3 14  1  0
  3 35  1  0
  4  5  2  0
  4 36  1  0
  5  6  1  0
  5 37  1  0
  6  7  1  0
  6 14  2  0
  7  8  1  0
  7 38  1  1
  7 39  1  0
  8  9  1  0
  8 16  1  0
  8 40  1  6
  9 10  1  0
  9 41  1  1
  9 42  1  0
 10 11  2  0
 10 12  1  0
 12 13  1  0
 12 43  1  0
 13 44  1  6
 13 45  1  0
 13 46  1  0
 14 15  1  0
 15 16  1  0
 15 17  1  0
 15 47  1  6
 16 48  1  6
 16 49  1  0
 17 18  2  0
 17 19  1  0
 19 20  1  0
 19 50  1  0
 20 21  2  0
 20 25  1  0
 21 22  1  0
 21 26  1  0
 22 23  2  0
 22 29  1  0
 23 24  1  0
 23 51  1  0
 24 25  2  0
 25 52  1  0
 26 27  2  0
 26 53  1  0
 27 28  1  0
 27 30  1  0
 28 29  2  0
 28 54  1  0
 29 55  1  0
 31 30  1  6
 30 56  1  0
 31 32  2  0
 31 33  2  0
 31 34  1  0
 34 57  1  1
 34 58  1  0
 34 59  1  0
M  CHG  1   8   1
M  END
$$$$
