LIG(A-305)
     RDKit          3D

 30 31  0  0  0  0  0  0  0  0999 V2000
    8.4623   -1.4258   20.8181 C   0  0  1  0  0  0  0  0  0  0  0  0
    7.4233   -1.7027   18.5171 C   0  0  1  0  0  0  0  0  0  0  0  0
    6.5863   -0.4087   18.4242 C   0  0  0  0  0  0  0  0  0  0  0  0
    5.6124   -0.0076   19.3362 C   0  0  0  0  0  0  0  0  0  0  0  0
    5.1134    1.1884   18.9002 C   0  0  0  0  0  0  0  0  0  0  0  0
    4.0185    2.0095   19.5832 C   0  0  1  0  0  0  0  0  0  0  0  0
    6.6112   -3.1297   20.4732 C   0  0  0  0  0  0  0  0  0  0  0  0
    5.8042   -4.5356   22.4492 C   0  0  2  0  0  0  0  0  0  0  0  0
    6.4922   -5.5497   23.3672 C   0  0  1  0  0  0  0  0  0  0  0  0
    6.0681   -5.9596   21.9502 C   0  0  2  0  0  0  0  0  0  0  0  0
    7.4993   -2.0967   19.9361 N   0  0  0  0  0  0  0  0  0  0  0  0
    6.6694    0.5403   17.4801 N   0  0  0  0  0  0  0  0  0  0  0  0
    6.6852   -3.4987   21.8962 N   0  0  0  0  0  0  0  0  0  0  0  0
    5.7534    1.4994   17.7842 O   0  0  0  0  0  0  0  0  0  0  0  0
    5.8352   -3.6656   19.7452 O   0  0  0  0  0  0  0  0  0  0  0  0
    9.0368   -0.6869   20.2401 H   0  0  0  0  0  0  0  0  0  0  0  0
    7.9227   -0.9166   21.6302 H   0  0  0  0  0  0  0  0  0  0  0  0
    9.1492   -2.1712   21.2453 H   0  0  0  0  0  0  0  0  0  0  0  0
    6.9417   -2.5012   17.9335 H   0  0  0  0  0  0  0  0  0  0  0  0
    8.4351   -1.5216   18.1255 H   0  0  0  0  0  0  0  0  0  0  0  0
    5.3078   -0.5426   20.2236 H   0  0  0  0  0  0  0  0  0  0  0  0
    4.3435    2.2827   20.5980 H   0  0  0  0  0  0  0  0  0  0  0  0
    3.8283    2.9231   19.0009 H   0  0  0  0  0  0  0  0  0  0  0  0
    3.0960    1.4133   19.6419 H   0  0  0  0  0  0  0  0  0  0  0  0
    4.7630   -4.2693   22.6837 H   0  0  0  0  0  0  0  0  0  0  0  0
    7.5588   -5.4360   23.6109 H   0  0  0  0  0  0  0  0  0  0  0  0
    5.9576   -5.9530   24.2398 H   0  0  0  0  0  0  0  0  0  0  0  0
    6.8306   -6.1397   21.1781 H   0  0  0  0  0  0  0  0  0  0  0  0
    5.2293   -6.6568   21.8068 H   0  0  0  0  0  0  0  0  0  0  0  0
    7.3425   -3.0384   22.4929 H   0  0  0  0  0  0  0  0  0  0  0  0
  1 11  1  0
  1 16  1  6
  1 17  1  0
  1 18  1  0
  2  3  1  0
  2 11  1  0
  2 19  1  6
  2 20  1  0
  3  4  1  0
  3 12  2  0
  4  5  2  0
  4 21  1  0
  5  6  1  0
  5 14  1  0
  6 22  1  1
  6 23  1  0
  6 24  1  0
  7 11  1  0
  7 13  1  0
  7 15  2  0
  8  9  1  0
  8 10  1  0
  8 13  1  0
  8 25  1  1
  9 10  1  0
  9 26  1  1
  9 27  1  0
 10 28  1  6
 10 29  1  0
 12 14  1  0
 13 30  1  0
M  END
$$$$
