LIG(A-307)
     RDKit          3D

 53 57  0  0  0  0  0  0  0  0999 V2000
    7.2472   -3.9704   23.4796 C   0  0  0  0  0  0  0  0  0  0  0  0
    7.0968   -0.2469   18.9084 C   0  0  0  0  0  0  0  0  0  0  0  0
    5.1420    0.9775   18.2196 C   0  0  0  0  0  0  0  0  0  0  0  0
    7.4528   -0.9089   21.2300 N   0  0  0  0  0  0  0  0  0  0  0  0
    6.6234   -0.2344   20.2286 C   0  0  0  0  0  0  0  0  0  0  0  0
   11.9489   -1.4616   23.0274 C   0  0  0  0  0  0  0  0  0  0  0  0
   13.2396   -1.0397   23.3617 C   0  0  0  0  0  0  0  0  0  0  0  0
   13.5299    0.3135   23.4925 C   0  0  0  0  0  0  0  0  0  0  0  0
   12.5344    1.2654   23.2676 C   0  0  0  0  0  0  0  0  0  0  0  0
   11.9296    3.5965   23.1136 C   0  0  1  0  0  0  0  0  0  0  0  0
   12.5669    4.9483   23.5266 C   0  0  1  0  0  0  0  0  0  0  0  0
   11.2331    0.8660   22.9294 C   0  0  0  0  0  0  0  0  0  0  0  0
    6.9403   -2.0579   21.8318 C   0  0  0  0  0  0  0  0  0  0  0  0
    6.0749   -6.1016   23.5722 C   0  0  0  0  0  0  0  0  0  0  0  0
    6.3254   -6.1727   24.9484 C   0  0  0  0  0  0  0  0  0  0  0  0
   10.9431   -0.5097   22.8142 C   0  0  0  0  0  0  0  0  0  0  0  0
    9.5301   -1.0343   22.4508 C   0  0  0  0  0  0  0  0  0  0  0  0
    7.0295   -5.1488   25.5932 C   0  0  0  0  0  0  0  0  0  0  0  0
    7.4860   -4.0517   24.8589 C   0  0  0  0  0  0  0  0  0  0  0  0
    9.0434   -2.1888   23.0752 C   0  0  0  0  0  0  0  0  0  0  0  0
    8.7154   -0.3931   21.5207 C   0  0  0  0  0  0  0  0  0  0  0  0
    6.5272   -4.9977   22.8356 C   0  0  0  0  0  0  0  0  0  0  0  0
    6.2194   -4.9764   21.3358 C   0  0  0  0  0  0  0  0  0  0  0  0
   14.0875    5.0421   23.2844 C   0  0  1  0  0  0  0  0  0  0  0  0
   13.0933    5.8296   22.4012 C   0  0  2  0  0  0  0  0  0  0  0  0
    4.6796    0.9863   19.5421 C   0  0  0  0  0  0  0  0  0  0  0  0
    5.4138    0.3726   20.5607 C   0  0  0  0  0  0  0  0  0  0  0  0
    7.7733   -2.7017   22.7553 C   0  0  0  0  0  0  0  0  0  0  0  0
    6.3546    0.3638   17.8967 N   0  0  0  0  0  0  0  0  0  0  0  0
    5.9861   -4.9716   20.2153 N   0  0  0  0  0  0  0  0  0  0  0  0
    9.1370    0.7710   20.8807 O   0  0  0  0  0  0  0  0  0  0  0  0
   12.9036    2.6183   23.4070 O   0  0  0  0  0  0  0  0  0  0  0  0
   14.5466   -2.2080   23.6597 Cl  0  0  0  0  0  0  0  0  0  0  0  0
    8.0348   -0.7286   18.6751 H   0  0  0  0  0  0  0  0  0  0  0  0
    4.5565    1.4486   17.4439 H   0  0  0  0  0  0  0  0  0  0  0  0
   11.7287   -2.5148   22.9341 H   0  0  0  0  0  0  0  0  0  0  0  0
   14.5256    0.6282   23.7683 H   0  0  0  0  0  0  0  0  0  0  0  0
   11.0118    3.4113   23.6910 H   0  0  0  0  0  0  0  0  0  0  0  0
   11.6935    3.5945   22.0393 H   0  0  0  0  0  0  0  0  0  0  0  0
   12.1640    5.4440   24.4222 H   0  0  0  0  0  0  0  0  0  0  0  0
   10.4622    1.6031   22.7591 H   0  0  0  0  0  0  0  0  0  0  0  0
    5.9542   -2.4311   21.5981 H   0  0  0  0  0  0  0  0  0  0  0  0
    5.5341   -6.8959   23.0792 H   0  0  0  0  0  0  0  0  0  0  0  0
    5.9736   -7.0220   25.5152 H   0  0  0  0  0  0  0  0  0  0  0  0
    7.2190   -5.2068   26.6548 H   0  0  0  0  0  0  0  0  0  0  0  0
    8.0267   -3.2606   25.3570 H   0  0  0  0  0  0  0  0  0  0  0  0
    9.6512   -2.6924   23.8124 H   0  0  0  0  0  0  0  0  0  0  0  0
   14.7295    5.5736   24.0023 H   0  0  0  0  0  0  0  0  0  0  0  0
   14.6348    4.1831   22.8691 H   0  0  0  0  0  0  0  0  0  0  0  0
   13.0313    6.9245   22.4865 H   0  0  0  0  0  0  0  0  0  0  0  0
   12.9367    5.5339   21.3533 H   0  0  0  0  0  0  0  0  0  0  0  0
    3.7447    1.4732   19.7772 H   0  0  0  0  0  0  0  0  0  0  0  0
    5.0531    0.3690   21.5788 H   0  0  0  0  0  0  0  0  0  0  0  0
  1 19  1  0
  1 22  2  0
  1 28  1  0
  2  5  2  0
  2 29  1  0
  2 34  1  0
  3 26  1  0
  3 29  2  0
  3 35  1  0
  4  5  1  0
  4 13  1  0
  4 21  1  0
  5 27  1  0
  6  7  2  0
  6 16  1  0
  6 36  1  0
  7  8  1  0
  7 33  1  0
  8  9  2  0
  8 37  1  0
  9 12  1  0
  9 32  1  0
 10 11  1  0
 10 32  1  0
 10 38  1  1
 10 39  1  0
 11 24  1  0
 11 25  1  0
 11 40  1  1
 12 16  2  0
 12 41  1  0
 13 28  2  0
 13 42  1  0
 14 15  2  0
 14 22  1  0
 14 43  1  0
 15 18  1  0
 15 44  1  0
 16 17  1  0
 17 20  2  0
 17 21  1  0
 18 19  2  0
 18 45  1  0
 19 46  1  0
 20 28  1  0
 20 47  1  0
 21 31  2  0
 22 23  1  0
 23 30  3  0
 24 25  1  0
 24 48  1  1
 24 49  1  0
 25 50  1  6
 25 51  1  0
 26 27  2  0
 26 52  1  0
 27 53  1  0
M  END
$$$$
