LIG(A-305)
     RDKit          3D

 34 35  0  0  0  0  0  0  0  0999 V2000
    8.6979    0.5132   21.2932 O   0  0  0  0  0  0  0  0  0  0  0  0
    7.9658   -0.4627   21.5203 C   0  0  0  0  0  0  0  0  0  0  0  0
    8.1598   -1.3786   22.7123 C   0  0  1  0  0  0  0  0  0  0  0  0
    9.6098   -1.2958   23.0912 C   0  0  0  0  0  0  0  0  0  0  0  0
   10.5777   -1.7989   22.2392 C   0  0  0  0  0  0  0  0  0  0  0  0
   11.9008   -1.4340   22.3801 C   0  0  0  0  0  0  0  0  0  0  0  0
   10.0180   -0.4907   24.1422 C   0  0  0  0  0  0  0  0  0  0  0  0
   11.3440   -0.1389   24.2881 C   0  0  0  0  0  0  0  0  0  0  0  0
   12.3019   -0.5800   23.3920 C   0  0  0  0  0  0  0  0  0  0  0  0
   13.7200   -0.0991   23.4789 C   0  0  1  0  0  0  0  0  0  0  0  0
    6.9118   -0.7976   20.7743 N   0  0  0  0  0  0  0  0  0  0  0  0
    6.3988   -0.0156   19.7303 C   0  0  0  0  0  0  0  0  0  0  0  0
    5.3019    0.8235   19.9613 C   0  0  0  0  0  0  0  0  0  0  0  0
    4.7540    1.0616   21.3454 C   0  0  1  0  0  0  0  0  0  0  0  0
    4.7749    1.4935   18.8693 C   0  0  0  0  0  0  0  0  0  0  0  0
    5.3718    1.3553   17.6353 C   0  0  0  0  0  0  0  0  0  0  0  0
    6.4497    0.5942   17.4183 N   0  0  0  0  0  0  0  0  0  0  0  0
    6.9437   -0.0848   18.4563 C   0  0  0  0  0  0  0  0  0  0  0  0
    7.5297   -1.0474   23.5509 H   0  0  0  0  0  0  0  0  0  0  0  0
    7.8974   -2.4122   22.4424 H   0  0  0  0  0  0  0  0  0  0  0  0
   10.2939   -2.4851   21.4550 H   0  0  0  0  0  0  0  0  0  0  0  0
   12.6352   -1.8212   21.6894 H   0  0  0  0  0  0  0  0  0  0  0  0
    9.2896   -0.1344   24.8556 H   0  0  0  0  0  0  0  0  0  0  0  0
   11.6390    0.4908   25.1145 H   0  0  0  0  0  0  0  0  0  0  0  0
   14.3046   -0.5284   22.6519 H   0  0  0  0  0  0  0  0  0  0  0  0
   13.7396    0.9985   23.4106 H   0  0  0  0  0  0  0  0  0  0  0  0
   14.1558   -0.4147   24.4383 H   0  0  0  0  0  0  0  0  0  0  0  0
    6.4567   -1.6656   20.9736 H   0  0  0  0  0  0  0  0  0  0  0  0
    5.5371    1.5029   21.9794 H   0  0  0  0  0  0  0  0  0  0  0  0
    3.8982    1.7502   21.2873 H   0  0  0  0  0  0  0  0  0  0  0  0
    4.4264    0.1054   21.7794 H   0  0  0  0  0  0  0  0  0  0  0  0
    3.9024    2.1196   18.9844 H   0  0  0  0  0  0  0  0  0  0  0  0
    4.9466    1.8901   16.7989 H   0  0  0  0  0  0  0  0  0  0  0  0
    7.8056   -0.7158   18.2972 H   0  0  0  0  0  0  0  0  0  0  0  0
  1  2  2  0
  2  3  1  0
  2 11  1  0
  3  4  1  0
  3 19  1  1
  3 20  1  0
  4  5  2  0
  4  7  1  0
  5  6  1  0
  5 21  1  0
  6  9  2  0
  6 22  1  0
  7  8  2  0
  7 23  1  0
  8  9  1  0
  8 24  1  0
  9 10  1  0
 10 25  1  6
 10 26  1  0
 10 27  1  0
 11 12  1  0
 11 28  1  0
 12 13  2  0
 12 18  1  0
 13 14  1  0
 13 15  1  0
 14 29  1  1
 14 30  1  0
 14 31  1  0
 15 16  2  0
 15 32  1  0
 16 17  1  0
 16 33  1  0
 17 18  2  0
 18 34  1  0
M  END
$$$$
