LIG(A-306)
     RDKit          3D

 51 54  0  0  1  0  0  0  0  0999 V2000
   13.9816   -1.5683   21.4824 Cl  0  0  0  0  0  0  0  0  0  0  0  0
   12.7790   -0.7641   22.4472 C   0  0  0  0  0  0  0  0  0  0  0  0
   11.4546   -1.1385   22.3239 C   0  0  0  0  0  0  0  0  0  0  0  0
   13.1752    0.2041   23.3387 C   0  0  0  0  0  0  0  0  0  0  0  0
   12.2304    0.7795   24.1651 C   0  0  0  0  0  0  0  0  0  0  0  0
   10.8871    0.4172   24.0853 C   0  0  0  0  0  0  0  0  0  0  0  0
    9.9351    1.0333   25.0828 C   0  0  1  0  0  0  0  0  0  0  0  0
    8.5312    0.8472   24.6923 N   0  0  0  0  0  0  0  0  0  0  0  0
    7.4244    1.9749   24.9662 S   0  0  1  0  0  0  0  0  0  0  0  0
    6.1617    1.4377   24.5712 O   0  0  0  0  0  0  0  0  0  0  0  0
    7.6122    2.4068   26.3144 O   0  0  0  0  0  0  0  0  0  0  0  0
    7.8875    3.2226   24.0322 N   0  0  0  0  0  0  0  0  0  0  0  0
    7.2273    3.5019   22.7524 C   0  0  1  0  0  0  0  0  0  0  0  0
    6.4615    4.7880   22.8017 C   0  0  1  0  0  0  0  0  0  0  0  0
   10.4885   -0.5306   23.1294 C   0  0  0  0  0  0  0  0  0  0  0  0
    9.0180   -0.8475   22.9244 C   0  0  1  0  0  0  0  0  0  0  0  0
    8.2060   -0.4926   24.1702 C   0  0  2  0  0  0  0  0  0  0  0  0
    8.5065   -0.0856   21.6977 C   0  0  0  0  0  0  0  0  0  0  0  0
    9.0759    0.9163   21.2655 O   0  0  0  0  0  0  0  0  0  0  0  0
    7.3728   -0.5936   21.1501 N   0  0  0  0  0  0  0  0  0  0  0  0
    6.6564   -0.0997   20.0348 C   0  0  0  0  0  0  0  0  0  0  0  0
    5.4871    0.6947   20.2660 C   0  0  0  0  0  0  0  0  0  0  0  0
    4.9230    0.9197   21.5501 C   0  0  0  0  0  0  0  0  0  0  0  0
    3.8290    1.7238   21.7086 C   0  0  0  0  0  0  0  0  0  0  0  0
    3.2446    2.3483   20.6125 C   0  0  0  0  0  0  0  0  0  0  0  0
    3.7382    2.1498   19.3542 C   0  0  0  0  0  0  0  0  0  0  0  0
    4.8642    1.3138   19.1437 C   0  0  0  0  0  0  0  0  0  0  0  0
    5.4221    1.0696   17.8620 C   0  0  0  0  0  0  0  0  0  0  0  0
    6.4934    0.3131   17.6451 N   0  0  0  0  0  0  0  0  0  0  0  0
    7.0830   -0.2447   18.7126 C   0  0  0  0  0  0  0  0  0  0  0  0
   11.1682   -1.8963   21.6096 H   0  0  0  0  0  0  0  0  0  0  0  0
   14.2095    0.5102   23.3919 H   0  0  0  0  0  0  0  0  0  0  0  0
   12.5377    1.5230   24.8855 H   0  0  0  0  0  0  0  0  0  0  0  0
   10.0959    0.5631   26.0641 H   0  0  0  0  0  0  0  0  0  0  0  0
   10.1438    2.1110   25.1538 H   0  0  0  0  0  0  0  0  0  0  0  0
    8.2088    4.0287   24.5291 H   0  0  0  0  0  0  0  0  0  0  0  0
    7.9906    3.5699   21.9633 H   0  0  0  0  0  0  0  0  0  0  0  0
    6.5330    2.6806   22.5212 H   0  0  0  0  0  0  0  0  0  0  0  0
    5.9803    4.9664   21.8288 H   0  0  0  0  0  0  0  0  0  0  0  0
    5.6920    4.7265   23.5855 H   0  0  0  0  0  0  0  0  0  0  0  0
    7.1496    5.6159   23.0275 H   0  0  0  0  0  0  0  0  0  0  0  0
    8.9133   -1.9259   22.7341 H   0  0  0  0  0  0  0  0  0  0  0  0
    7.1365   -0.5217   23.9146 H   0  0  0  0  0  0  0  0  0  0  0  0
    8.4164   -1.2368   24.9525 H   0  0  0  0  0  0  0  0  0  0  0  0
    7.0005   -1.4129   21.5863 H   0  0  0  0  0  0  0  0  0  0  0  0
    5.3655    0.4479   22.4150 H   0  0  0  0  0  0  0  0  0  0  0  0
    3.4148    1.8755   22.6945 H   0  0  0  0  0  0  0  0  0  0  0  0
    2.3927    2.9962   20.7571 H   0  0  0  0  0  0  0  0  0  0  0  0
    3.2664    2.6341   18.5120 H   0  0  0  0  0  0  0  0  0  0  0  0
    4.9457    1.5278   17.0078 H   0  0  0  0  0  0  0  0  0  0  0  0
    7.9568   -0.8543   18.5361 H   0  0  0  0  0  0  0  0  0  0  0  0
  1  2  1  0
  2  3  2  0
  2  4  1  0
  3 15  1  0
  3 31  1  0
  4  5  2  0
  4 32  1  0
  5  6  1  0
  5 33  1  0
  6  7  1  0
  6 15  2  0
  7  8  1  0
  7 34  1  1
  7 35  1  0
  8  9  1  0
  8 17  1  0
  9 10  2  0
  9 11  2  0
  9 12  1  6
 12 13  1  0
 12 36  1  0
 13 14  1  0
 13 37  1  6
 13 38  1  0
 14 39  1  6
 14 40  1  0
 14 41  1  0
 15 16  1  0
 16 17  1  0
 16 18  1  0
 16 42  1  6
 17 43  1  6
 17 44  1  0
 18 19  2  0
 18 20  1  0
 20 21  1  0
 20 45  1  0
 21 22  2  0
 21 30  1  0
 22 23  1  0
 22 27  1  0
 23 24  2  0
 23 46  1  0
 24 25  1  0
 24 47  1  0
 25 26  2  0
 25 48  1  0
 26 27  1  0
 26 49  1  0
 27 28  2  0
 28 29  1  0
 28 50  1  0
 29 30  2  0
 30 51  1  0
M  END
$$$$
