LIG(A-305)
     RDKit          3D

 64 66  0  0  1  0  0  0  0  0999 V2000
    9.2233    1.1718   20.9593 O   0  0  0  0  0  0  0  0  0  0  0  0
    8.2314    1.1299   21.6755 C   0  0  0  0  0  0  0  0  0  0  0  0
    7.9836    2.0399   22.6205 N   0  0  0  0  0  0  0  0  0  0  0  0
    8.8926    3.1529   22.8763 C   0  0  2  0  0  0  0  0  0  0  0  0
    9.6968    2.9199   24.1492 C   0  0  1  0  0  0  0  0  0  0  0  0
   10.6059    4.1069   24.3700 C   0  0  1  0  0  0  0  0  0  0  0  0
    9.8600    5.3359   24.4380 O   0  0  0  0  0  0  0  0  0  0  0  0
    9.1358    5.5819   23.2171 C   0  0  1  0  0  0  0  0  0  0  0  0
    8.1437    4.4780   22.9303 C   0  0  1  0  0  0  0  0  0  0  0  0
    7.1423    0.0689   21.4397 C   0  0  1  0  0  0  0  0  0  0  0  0
    6.4371    0.2789   20.1097 C   0  0  0  0  0  0  0  0  0  0  0  0
    5.2972    1.0670   20.0289 C   0  0  0  0  0  0  0  0  0  0  0  0
    4.7910    1.4319   18.7979 C   0  0  0  0  0  0  0  0  0  0  0  0
    5.4458    0.9878   17.6649 C   0  0  0  0  0  0  0  0  0  0  0  0
    6.5398    0.2198   17.7017 N   0  0  0  0  0  0  0  0  0  0  0  0
    7.0020   -0.1292   18.9077 C   0  0  0  0  0  0  0  0  0  0  0  0
    7.5453   -1.3221   21.7787 N   0  0  0  0  0  0  0  0  0  0  0  0
    6.7322   -2.3850   21.5088 C   0  0  0  0  0  0  0  0  0  0  0  0
    5.5402   -2.2420   21.3040 O   0  0  0  0  0  0  0  0  0  0  0  0
    7.3521   -3.7511   21.4108 C   0  0  1  0  0  0  0  0  0  0  0  0
    7.1109   -4.3531   20.0378 C   0  0  1  0  0  0  0  0  0  0  0  0
    8.7794   -1.4831   22.4945 C   0  0  0  0  0  0  0  0  0  0  0  0
    8.7986   -1.4090   23.8855 C   0  0  0  0  0  0  0  0  0  0  0  0
    9.9937   -1.5341   24.5733 C   0  0  0  0  0  0  0  0  0  0  0  0
   11.1966   -1.7311   23.9012 C   0  0  0  0  0  0  0  0  0  0  0  0
   12.5157   -1.8002   24.6870 C   0  0  1  0  0  0  0  0  0  0  0  0
   12.5768   -3.0611   25.5700 C   0  0  1  0  0  0  0  0  0  0  0  0
   13.7366   -1.8233   23.7688 C   0  0  1  0  0  0  0  0  0  0  0  0
   12.6409   -0.5741   25.5919 C   0  0  1  0  0  0  0  0  0  0  0  0
   11.1654   -1.8212   22.5102 C   0  0  0  0  0  0  0  0  0  0  0  0
    9.9763   -1.7002   21.8093 C   0  0  0  0  0  0  0  0  0  0  0  0
    7.1513    1.9567   23.1687 H   0  0  0  0  0  0  0  0  0  0  0  0
    9.6068    3.2121   22.0418 H   0  0  0  0  0  0  0  0  0  0  0  0
    9.0136    2.8124   25.0046 H   0  0  0  0  0  0  0  0  0  0  0  0
   10.2998    2.0059   24.0443 H   0  0  0  0  0  0  0  0  0  0  0  0
   11.1528    3.9677   25.3142 H   0  0  0  0  0  0  0  0  0  0  0  0
   11.3219    4.1687   23.5372 H   0  0  0  0  0  0  0  0  0  0  0  0
    8.5939    6.5347   23.3086 H   0  0  0  0  0  0  0  0  0  0  0  0
    9.8510    5.6454   22.3837 H   0  0  0  0  0  0  0  0  0  0  0  0
    7.6507    4.6645   21.9649 H   0  0  0  0  0  0  0  0  0  0  0  0
    7.3869    4.4435   23.7278 H   0  0  0  0  0  0  0  0  0  0  0  0
    6.3734    0.3155   22.1868 H   0  0  0  0  0  0  0  0  0  0  0  0
    4.8048    1.3955   20.9322 H   0  0  0  0  0  0  0  0  0  0  0  0
    3.9071    2.0479   18.7222 H   0  0  0  0  0  0  0  0  0  0  0  0
    5.0540    1.2758   16.7005 H   0  0  0  0  0  0  0  0  0  0  0  0
    7.8705   -0.7697   18.9496 H   0  0  0  0  0  0  0  0  0  0  0  0
    8.4354   -3.6692   21.5838 H   0  0  0  0  0  0  0  0  0  0  0  0
    6.9071   -4.4051   22.1751 H   0  0  0  0  0  0  0  0  0  0  0  0
    7.5721   -5.3505   19.9881 H   0  0  0  0  0  0  0  0  0  0  0  0
    6.0288   -4.4404   19.8608 H   0  0  0  0  0  0  0  0  0  0  0  0
    7.5571   -3.7044   19.2697 H   0  0  0  0  0  0  0  0  0  0  0  0
    7.8784   -1.2536   24.4290 H   0  0  0  0  0  0  0  0  0  0  0  0
    9.9925   -1.4776   25.6518 H   0  0  0  0  0  0  0  0  0  0  0  0
   13.5306   -3.0801   26.1175 H   0  0  0  0  0  0  0  0  0  0  0  0
   11.7428   -3.0472   26.2871 H   0  0  0  0  0  0  0  0  0  0  0  0
   12.5001   -3.9567   24.9360 H   0  0  0  0  0  0  0  0  0  0  0  0
   14.6521   -1.8727   24.3765 H   0  0  0  0  0  0  0  0  0  0  0  0
   13.6846   -2.7041   23.1120 H   0  0  0  0  0  0  0  0  0  0  0  0
   13.7520   -0.9096   23.1565 H   0  0  0  0  0  0  0  0  0  0  0  0
   13.5857   -0.6266   26.1527 H   0  0  0  0  0  0  0  0  0  0  0  0
   12.6297    0.3379   24.9771 H   0  0  0  0  0  0  0  0  0  0  0  0
   11.7969   -0.5513   26.2970 H   0  0  0  0  0  0  0  0  0  0  0  0
   12.0850   -1.9884   21.9691 H   0  0  0  0  0  0  0  0  0  0  0  0
    9.9753   -1.7738   20.7318 H   0  0  0  0  0  0  0  0  0  0  0  0
  1  2  2  0
  2  3  1  0
  2 10  1  0
  3  4  1  0
  3 32  1  0
  4  5  1  0
  4  9  1  0
  4 33  1  6
  5  6  1  0
  5 34  1  1
  5 35  1  0
  6  7  1  0
  6 36  1  1
  6 37  1  0
  7  8  1  0
  8  9  1  0
  8 38  1  1
  8 39  1  0
  9 40  1  6
  9 41  1  0
 10 11  1  0
 10 17  1  0
 10 42  1  1
 11 12  2  0
 11 16  1  0
 12 13  1  0
 12 43  1  0
 13 14  2  0
 13 44  1  0
 14 15  1  0
 14 45  1  0
 15 16  2  0
 16 46  1  0
 17 18  1  0
 17 22  1  0
 18 19  2  0
 18 20  1  0
 20 21  1  0
 20 47  1  1
 20 48  1  0
 21 49  1  1
 21 50  1  0
 21 51  1  0
 22 23  2  0
 22 31  1  0
 23 24  1  0
 23 52  1  0
 24 25  2  0
 24 53  1  0
 26 25  1  6
 25 30  1  0
 26 27  1  0
 26 28  1  0
 26 29  1  0
 27 54  1  1
 27 55  1  0
 27 56  1  0
 28 57  1  1
 28 58  1  0
 28 59  1  0
 29 60  1  1
 29 61  1  0
 29 62  1  0
 30 31  2  0
 30 63  1  0
 31 64  1  0
M  END
$$$$
