LIG(A-305)
     RDKit          3D

 45 47  0  0  0  0  0  0  0  0999 V2000
    9.5697    1.0208   21.1032 O   0  0  0  0  0  0  0  0  0  0  0  0
    9.2856   -0.1501   21.3372 C   0  0  0  0  0  0  0  0  0  0  0  0
    8.1865   -0.7760   20.8553 N   0  0  0  0  0  0  0  0  0  0  0  0
    7.2385   -0.2039   19.9744 C   0  0  0  0  0  0  0  0  0  0  0  0
    6.0416    0.3282   20.4716 C   0  0  0  0  0  0  0  0  0  0  0  0
    5.6507    0.2182   21.9376 C   0  0  2  0  0  0  0  0  0  0  0  0
    4.6369    1.1533   22.5267 C   0  0  1  0  0  0  0  0  0  0  0  0
    6.0519    1.2592   22.9436 C   0  0  1  0  0  0  0  0  0  0  0  0
    5.1795    0.9473   19.5717 C   0  0  0  0  0  0  0  0  0  0  0  0
    5.5214    0.9923   18.2356 C   0  0  0  0  0  0  0  0  0  0  0  0
    6.6523    0.4832   17.7425 N   0  0  0  0  0  0  0  0  0  0  0  0
    7.4893   -0.1039   18.6054 C   0  0  0  0  0  0  0  0  0  0  0  0
   10.1756   -1.0213   22.2061 C   0  0  1  0  0  0  0  0  0  0  0  0
    9.4216   -1.8852   23.1072 N   0  0  2  0  0  0  0  0  0  0  0  0
    8.6578   -1.1021   24.0833 C   0  0  1  0  0  0  0  0  0  0  0  0
    7.7498   -2.0171   24.8773 C   0  0  1  0  0  0  0  0  0  0  0  0
   10.2976   -2.8193   23.8210 C   0  0  1  0  0  0  0  0  0  0  0  0
    9.4645   -3.7992   24.6371 C   0  0  1  0  0  0  0  0  0  0  0  0
    8.5387   -3.0752   25.5232 N   0  0  0  0  0  0  0  0  0  0  0  0
    8.3538   -3.3242   26.8392 C   0  0  0  0  0  0  0  0  0  0  0  0
    7.9920   -2.4342   27.5953 O   0  0  0  0  0  0  0  0  0  0  0  0
    8.5437   -4.7302   27.3252 C   0  0  1  0  0  0  0  0  0  0  0  0
    8.0317   -1.7203   21.1457 H   0  0  0  0  0  0  0  0  0  0  0  0
    5.6134   -0.8106   22.3252 H   0  0  0  0  0  0  0  0  0  0  0  0
    4.1887    1.9404   21.9024 H   0  0  0  0  0  0  0  0  0  0  0  0
    3.8842    0.7722   23.2326 H   0  0  0  0  0  0  0  0  0  0  0  0
    6.3494    0.9560   23.9582 H   0  0  0  0  0  0  0  0  0  0  0  0
    6.6539    2.1241   22.6281 H   0  0  0  0  0  0  0  0  0  0  0  0
    4.2546    1.3870   19.9146 H   0  0  0  0  0  0  0  0  0  0  0  0
    4.8348    1.4665   17.5499 H   0  0  0  0  0  0  0  0  0  0  0  0
    8.4080   -0.5227   18.2220 H   0  0  0  0  0  0  0  0  0  0  0  0
   10.7950   -1.6523   21.5518 H   0  0  0  0  0  0  0  0  0  0  0  0
   10.8251   -0.3686   22.8078 H   0  0  0  0  0  0  0  0  0  0  0  0
    8.7754   -2.4189   22.5617 H   0  0  0  0  0  0  0  0  0  0  0  0
    9.3528   -0.5937   24.7677 H   0  0  0  0  0  0  0  0  0  0  0  0
    8.0497   -0.3531   23.5549 H   0  0  0  0  0  0  0  0  0  0  0  0
    7.2268   -1.4314   25.6478 H   0  0  0  0  0  0  0  0  0  0  0  0
    7.0125   -2.4744   24.2011 H   0  0  0  0  0  0  0  0  0  0  0  0
   10.9052   -3.3768   23.0930 H   0  0  0  0  0  0  0  0  0  0  0  0
   10.9589   -2.2550   24.4949 H   0  0  0  0  0  0  0  0  0  0  0  0
    8.8862   -4.4391   23.9542 H   0  0  0  0  0  0  0  0  0  0  0  0
   10.1343   -4.4241   25.2461 H   0  0  0  0  0  0  0  0  0  0  0  0
    8.3109   -4.7822   28.3990 H   0  0  0  0  0  0  0  0  0  0  0  0
    7.8724   -5.4031   26.7716 H   0  0  0  0  0  0  0  0  0  0  0  0
    9.5873   -5.0369   27.1612 H   0  0  0  0  0  0  0  0  0  0  0  0
  1  2  2  0
  2  3  1  0
  2 13  1  0
  3  4  1  0
  3 23  1  0
  4  5  2  0
  4 12  1  0
  5  6  1  0
  5  9  1  0
  6  7  1  0
  6  8  1  0
  6 24  1  1
  7  8  1  0
  7 25  1  6
  7 26  1  0
  8 27  1  1
  8 28  1  0
  9 10  2  0
  9 29  1  0
 10 11  1  0
 10 30  1  0
 11 12  2  0
 12 31  1  0
 13 14  1  0
 13 32  1  6
 13 33  1  0
 14 15  1  0
 14 17  1  0
 14 34  1  6
 15 16  1  0
 15 35  1  1
 15 36  1  0
 16 19  1  0
 16 37  1  1
 16 38  1  0
 17 18  1  0
 17 39  1  6
 17 40  1  0
 18 19  1  0
 18 41  1  6
 18 42  1  0
 19 20  1  0
 20 21  2  0
 20 22  1  0
 22 43  1  1
 22 44  1  0
 22 45  1  0
M  CHG  1  14   1
M  END
$$$$
