LIG(A-306)
     RDKit          3D

 58 61  0  0  1  0  0  0  0  0999 V2000
   13.9851   -1.8339   21.4480 Cl  0  0  0  0  0  0  0  0  0  0  0  0
   12.8417   -0.8786   22.3516 C   0  0  0  0  0  0  0  0  0  0  0  0
   11.4980   -1.1855   22.2698 C   0  0  0  0  0  0  0  0  0  0  0  0
   13.3018    0.1221   23.1724 C   0  0  0  0  0  0  0  0  0  0  0  0
   12.4013    0.8006   23.9718 C   0  0  0  0  0  0  0  0  0  0  0  0
   11.0396    0.5031   23.9407 C   0  0  0  0  0  0  0  0  0  0  0  0
   10.1438    1.2123   24.9334 C   0  0  1  0  0  0  0  0  0  0  0  0
    8.7108    0.9870   24.6959 N   0  0  0  0  0  0  0  0  0  0  0  0
    7.5305    1.9703   25.1462 S   0  0  2  0  0  0  0  0  0  0  0  0
    7.6872    2.1855   26.5426 O   0  0  0  0  0  0  0  0  0  0  0  0
    6.3113    1.4637   24.6212 O   0  0  0  0  0  0  0  0  0  0  0  0
    7.8805    3.3327   24.3934 N   0  0  0  0  0  0  0  0  0  0  0  0
    7.4600    3.4831   22.9980 C   0  0  1  0  0  0  0  0  0  0  0  0
    8.5090    4.5331   24.9905 C   0  0  1  0  0  0  0  0  0  0  0  0
    7.5480    5.6817   25.1845 C   0  0  1  0  0  0  0  0  0  0  0  0
    6.7513    5.4333   26.3178 O   0  0  0  0  0  0  0  0  0  0  0  0
    7.1042    6.2662   27.4074 C   0  0  1  0  0  0  0  0  0  0  0  0
   10.5805   -0.4831   23.0534 C   0  0  0  0  0  0  0  0  0  0  0  0
    9.0942   -0.7439   22.9011 C   0  0  1  0  0  0  0  0  0  0  0  0
    8.3437   -0.3403   24.1674 C   0  0  2  0  0  0  0  0  0  0  0  0
    8.5732   -0.0045   21.6676 C   0  0  0  0  0  0  0  0  0  0  0  0
    9.1447    0.9820   21.2076 O   0  0  0  0  0  0  0  0  0  0  0  0
    7.4386   -0.5204   21.1397 N   0  0  0  0  0  0  0  0  0  0  0  0
    6.7145   -0.0519   20.0240 C   0  0  0  0  0  0  0  0  0  0  0  0
    5.5630    0.7645   20.2534 C   0  0  0  0  0  0  0  0  0  0  0  0
    5.0748    1.0963   21.5431 C   0  0  0  0  0  0  0  0  0  0  0  0
    3.9807    1.8995   21.6963 C   0  0  0  0  0  0  0  0  0  0  0  0
    3.3168    2.4090   20.5884 C   0  0  0  0  0  0  0  0  0  0  0  0
    3.7459    2.1171   19.3252 C   0  0  0  0  0  0  0  0  0  0  0  0
    4.8776    1.2904   19.1219 C   0  0  0  0  0  0  0  0  0  0  0  0
    5.3795    0.9634   17.8382 C   0  0  0  0  0  0  0  0  0  0  0  0
    6.4423    0.2004   17.6247 N   0  0  0  0  0  0  0  0  0  0  0  0
    7.0805   -0.2849   18.6988 C   0  0  0  0  0  0  0  0  0  0  0  0
   11.1586   -1.9646   21.6034 H   0  0  0  0  0  0  0  0  0  0  0  0
   14.3516    0.3749   23.1929 H   0  0  0  0  0  0  0  0  0  0  0  0
   12.7592    1.5759   24.6330 H   0  0  0  0  0  0  0  0  0  0  0  0
   10.3899    0.8525   25.9433 H   0  0  0  0  0  0  0  0  0  0  0  0
   10.3413    2.2926   24.8707 H   0  0  0  0  0  0  0  0  0  0  0  0
    7.7732    4.4691   22.6244 H   0  0  0  0  0  0  0  0  0  0  0  0
    7.9256    2.6950   22.3879 H   0  0  0  0  0  0  0  0  0  0  0  0
    6.3652    3.3977   22.9340 H   0  0  0  0  0  0  0  0  0  0  0  0
    8.9247    4.2575   25.9709 H   0  0  0  0  0  0  0  0  0  0  0  0
    9.3215    4.8668   24.3284 H   0  0  0  0  0  0  0  0  0  0  0  0
    8.1136    6.6139   25.3298 H   0  0  0  0  0  0  0  0  0  0  0  0
    6.9053    5.7773   24.2970 H   0  0  0  0  0  0  0  0  0  0  0  0
    6.4582    6.0383   28.2680 H   0  0  0  0  0  0  0  0  0  0  0  0
    8.1548    6.0873   27.6801 H   0  0  0  0  0  0  0  0  0  0  0  0
    6.9741    7.3201   27.1203 H   0  0  0  0  0  0  0  0  0  0  0  0
    8.9465   -1.8223   22.7427 H   0  0  0  0  0  0  0  0  0  0  0  0
    7.2669   -0.3354   23.9424 H   0  0  0  0  0  0  0  0  0  0  0  0
    8.5525   -1.0900   24.9448 H   0  0  0  0  0  0  0  0  0  0  0  0
    7.0697   -1.3306   21.5953 H   0  0  0  0  0  0  0  0  0  0  0  0
    5.5759    0.7079   22.4174 H   0  0  0  0  0  0  0  0  0  0  0  0
    3.6288    2.1406   22.6885 H   0  0  0  0  0  0  0  0  0  0  0  0
    2.4528    3.0421   20.7270 H   0  0  0  0  0  0  0  0  0  0  0  0
    3.2176    2.5203   18.4739 H   0  0  0  0  0  0  0  0  0  0  0  0
    4.8627    1.3614   16.9775 H   0  0  0  0  0  0  0  0  0  0  0  0
    7.9467   -0.9057   18.5240 H   0  0  0  0  0  0  0  0  0  0  0  0
  1  2  1  0
  2  3  2  0
  2  4  1  0
  3 18  1  0
  3 34  1  0
  4  5  2  0
  4 35  1  0
  5  6  1  0
  5 36  1  0
  6  7  1  0
  6 18  2  0
  7  8  1  0
  7 37  1  1
  7 38  1  0
  8  9  1  0
  8 20  1  0
  9 10  2  0
  9 11  2  0
  9 12  1  6
 12 13  1  0
 12 14  1  0
 13 39  1  6
 13 40  1  0
 13 41  1  0
 14 15  1  0
 14 42  1  1
 14 43  1  0
 15 16  1  0
 15 44  1  1
 15 45  1  0
 16 17  1  0
 17 46  1  1
 17 47  1  0
 17 48  1  0
 18 19  1  0
 19 20  1  0
 19 21  1  0
 19 49  1  6
 20 50  1  6
 20 51  1  0
 21 22  2  0
 21 23  1  0
 23 24  1  0
 23 52  1  0
 24 25  2  0
 24 33  1  0
 25 26  1  0
 25 30  1  0
 26 27  2  0
 26 53  1  0
 27 28  1  0
 27 54  1  0
 28 29  2  0
 28 55  1  0
 29 30  1  0
 29 56  1  0
 30 31  2  0
 31 32  1  0
 31 57  1  0
 32 33  2  0
 33 58  1  0
M  END
$$$$
