LIG(A-305)
     RDKit          3D

 32 33  0  0  1  0  0  0  0  0999 V2000
   22.0587   20.1826    4.0269 C   0  0  1  0  0  0  0  0  0  0  0  0
   20.8376   19.3377    4.2730 C   0  0  1  0  0  0  0  0  0  0  0  0
   21.2406   17.8436    4.2550 C   0  0  1  0  0  0  0  0  0  0  0  0
   22.4526   16.3416    5.5029 C   0  0  1  0  0  0  0  0  0  0  0  0
   21.9556   15.1006    6.2380 C   0  0  0  0  0  0  0  0  0  0  0  0
   22.5726   13.9016    5.9439 C   0  0  0  0  0  0  0  0  0  0  0  0
   22.1726   12.7396    6.5700 C   0  0  0  0  0  0  0  0  0  0  0  0
   21.1567   12.7657    7.5061 C   0  0  0  0  0  0  0  0  0  0  0  0
   20.5457   13.9447    7.8091 C   0  0  0  0  0  0  0  0  0  0  0  0
   20.9447   15.1207    7.1721 C   0  0  0  0  0  0  0  0  0  0  0  0
   21.8178   18.2357    6.5530 C   0  0  1  0  0  0  0  0  0  0  0  0
   20.6598   19.2407    6.6880 C   0  0  1  0  0  0  0  0  0  0  0  0
   21.5847   17.2987    5.5360 N   0  0  0  0  0  0  0  0  0  0  0  0
   21.9457   21.3676    4.6969 O   0  0  0  0  0  0  0  0  0  0  0  0
   20.1798   19.7627    5.4551 O   0  0  0  0  0  0  0  0  0  0  0  0
   22.9511   19.6464    4.3818 H   0  0  0  0  0  0  0  0  0  0  0  0
   22.1543   20.3805    2.9491 H   0  0  0  0  0  0  0  0  0  0  0  0
   20.1569   19.4929    3.4231 H   0  0  0  0  0  0  0  0  0  0  0  0
   20.3951   17.2660    3.8531 H   0  0  0  0  0  0  0  0  0  0  0  0
   22.1100   17.7316    3.5906 H   0  0  0  0  0  0  0  0  0  0  0  0
   23.3827   16.6879    5.9774 H   0  0  0  0  0  0  0  0  0  0  0  0
   22.6522   16.0780    4.4538 H   0  0  0  0  0  0  0  0  0  0  0  0
   23.3731   13.8731    5.2195 H   0  0  0  0  0  0  0  0  0  0  0  0
   22.6558   11.8047    6.3274 H   0  0  0  0  0  0  0  0  0  0  0  0
   20.8480   11.8540    7.9959 H   0  0  0  0  0  0  0  0  0  0  0  0
   19.7529   13.9696    8.5421 H   0  0  0  0  0  0  0  0  0  0  0  0
   20.4567   16.0533    7.4138 H   0  0  0  0  0  0  0  0  0  0  0  0
   22.7414   18.7870    6.3229 H   0  0  0  0  0  0  0  0  0  0  0  0
   21.9375   17.7017    7.5072 H   0  0  0  0  0  0  0  0  0  0  0  0
   19.8246   18.7351    7.1946 H   0  0  0  0  0  0  0  0  0  0  0  0
   21.0070   20.0828    7.3048 H   0  0  0  0  0  0  0  0  0  0  0  0
   21.2324   21.3119    5.3218 H   0  0  0  0  0  0  0  0  0  0  0  0
  1  2  1  0
  1 14  1  0
  1 16  1  1
  1 17  1  0
  2  3  1  0
  2 15  1  0
  2 18  1  6
  3 13  1  0
  3 19  1  6
  3 20  1  0
  4  5  1  0
  4 13  1  0
  4 21  1  1
  4 22  1  0
  5  6  2  0
  5 10  1  0
  6  7  1  0
  6 23  1  0
  7  8  2  0
  7 24  1  0
  8  9  1  0
  8 25  1  0
  9 10  2  0
  9 26  1  0
 10 27  1  0
 11 12  1  0
 11 13  1  0
 11 28  1  6
 11 29  1  0
 12 15  1  0
 12 30  1  1
 12 31  1  0
 14 32  1  0
M  END
$$$$
