LIG(A-305)
     RDKit          3D

 41 43  0  0  1  0  0  0  0  0999 V2000
   22.0273    4.7241   26.0627 O   0  0  0  0  0  0  0  0  0  0  0  0
   22.8594    4.5935   25.1659 C   0  0  0  0  0  0  0  0  0  0  0  0
   22.7892    5.2478   24.0191 N   0  0  0  0  0  0  0  0  0  0  0  0
   24.0237    3.6386   25.3174 C   0  0  1  0  0  0  0  0  0  0  0  0
   24.4162    3.3762   26.7959 C   0  0  2  0  0  0  0  0  0  0  0  0
   25.2927    4.4311   27.4314 C   0  0  0  0  0  0  0  0  0  0  0  0
   26.0287    5.3105   26.6480 C   0  0  0  0  0  0  0  0  0  0  0  0
   26.7582    6.3314   27.2286 C   0  0  0  0  0  0  0  0  0  0  0  0
   26.7715    6.4800   28.5966 C   0  0  0  0  0  0  0  0  0  0  0  0
   26.0604    5.6037   29.3870 C   0  0  0  0  0  0  0  0  0  0  0  0
   25.3300    4.5807   28.8084 C   0  0  0  0  0  0  0  0  0  0  0  0
   25.0773    2.0064   26.6639 C   0  0  1  0  0  0  0  0  0  0  0  0
   24.0766    1.2854   25.8696 N   0  0  1  0  0  0  0  0  0  0  0  0
   23.6634    2.2367   24.8303 C   0  0  2  0  0  0  0  0  0  0  0  0
   24.5203   -0.0033   25.3318 C   0  0  1  0  0  0  0  0  0  0  0  0
   23.3200   -0.8194   24.9257 C   0  0  0  0  0  0  0  0  0  0  0  0
   22.3760   -1.2068   25.8615 C   0  0  0  0  0  0  0  0  0  0  0  0
   21.2098   -1.7839   25.5635 N   0  0  0  0  0  0  0  0  0  0  0  0
   20.9516   -1.9956   24.2717 C   0  0  0  0  0  0  0  0  0  0  0  0
   21.8315   -1.6681   23.2629 C   0  0  0  0  0  0  0  0  0  0  0  0
   23.0318   -1.0780   23.5999 C   0  0  0  0  0  0  0  0  0  0  0  0
   22.0349    5.8825   23.8510 H   0  0  0  0  0  0  0  0  0  0  0  0
   23.4903    5.1081   23.3199 H   0  0  0  0  0  0  0  0  0  0  0  0
   24.8970    4.0152   24.7647 H   0  0  0  0  0  0  0  0  0  0  0  0
   23.4954    3.2705   27.3883 H   0  0  0  0  0  0  0  0  0  0  0  0
   26.0314    5.1957   25.5741 H   0  0  0  0  0  0  0  0  0  0  0  0
   27.3187    7.0139   26.6070 H   0  0  0  0  0  0  0  0  0  0  0  0
   27.3374    7.2809   29.0492 H   0  0  0  0  0  0  0  0  0  0  0  0
   26.0731    5.7154   30.4612 H   0  0  0  0  0  0  0  0  0  0  0  0
   24.7837    3.8922   29.4361 H   0  0  0  0  0  0  0  0  0  0  0  0
   26.0403    2.0722   26.1362 H   0  0  0  0  0  0  0  0  0  0  0  0
   25.2288    1.5350   27.6462 H   0  0  0  0  0  0  0  0  0  0  0  0
   23.2861    1.1147   26.4577 H   0  0  0  0  0  0  0  0  0  0  0  0
   24.1923    2.0187   23.8907 H   0  0  0  0  0  0  0  0  0  0  0  0
   22.5783    2.1643   24.6656 H   0  0  0  0  0  0  0  0  0  0  0  0
   25.1616    0.1670   24.4544 H   0  0  0  0  0  0  0  0  0  0  0  0
   25.0888   -0.5457   26.1017 H   0  0  0  0  0  0  0  0  0  0  0  0
   22.5983   -1.0301   26.9035 H   0  0  0  0  0  0  0  0  0  0  0  0
   20.0070   -2.4453   24.0036 H   0  0  0  0  0  0  0  0  0  0  0  0
   21.5865   -1.8692   22.2305 H   0  0  0  0  0  0  0  0  0  0  0  0
   23.7436   -0.8192   22.8300 H   0  0  0  0  0  0  0  0  0  0  0  0
  1  2  2  0
  2  3  1  0
  2  4  1  0
  3 22  1  0
  3 23  1  0
  4  5  1  0
  4 14  1  0
  4 24  1  6
  5  6  1  0
  5 12  1  0
  5 25  1  1
  6  7  2  0
  6 11  1  0
  7  8  1  0
  7 26  1  0
  8  9  2  0
  8 27  1  0
  9 10  1  0
  9 28  1  0
 10 11  2  0
 10 29  1  0
 11 30  1  0
 12 13  1  0
 12 31  1  6
 12 32  1  0
 13 14  1  0
 13 15  1  0
 13 33  1  1
 14 34  1  6
 14 35  1  0
 15 16  1  0
 15 36  1  6
 15 37  1  0
 16 17  2  0
 16 21  1  0
 17 18  1  0
 17 38  1  0
 18 19  2  0
 19 20  1  0
 19 39  1  0
 20 21  2  0
 20 40  1  0
 21 41  1  0
M  CHG  1  13   1
M  END
$$$$
