LIG(A-307)
     RDKit          3D

 52 55  0  0  0  0  0  0  0  0999 V2000
    6.9225   -2.0677   21.7572 C   0  0  0  0  0  0  0  0  0  0  0  0
    7.7279   -2.7598   22.7178 C   0  0  0  0  0  0  0  0  0  0  0  0
    7.1743   -3.9800   23.4448 C   0  0  0  0  0  0  0  0  0  0  0  0
    6.4492   -5.0130   22.8118 C   0  0  0  0  0  0  0  0  0  0  0  0
    6.1957   -5.0058   21.3079 C   0  0  0  0  0  0  0  0  0  0  0  0
    5.9506   -6.0852   23.5718 C   0  0  0  0  0  0  0  0  0  0  0  0
    9.1498    0.7217   20.7779 O   0  0  0  0  0  0  0  0  0  0  0  0
    8.7031   -0.4235   21.4188 C   0  0  0  0  0  0  0  0  0  0  0  0
    6.6186   -0.2295   20.1016 C   0  0  0  0  0  0  0  0  0  0  0  0
    7.0551   -0.2022   18.7695 C   0  0  0  0  0  0  0  0  0  0  0  0
    5.0638    1.0407   18.1524 C   0  0  0  0  0  0  0  0  0  0  0  0
    4.6273    1.0144   19.4886 C   0  0  0  0  0  0  0  0  0  0  0  0
    5.4027    0.3663   20.4642 C   0  0  0  0  0  0  0  0  0  0  0  0
   12.7275    2.6357   23.2909 O   0  0  0  0  0  0  0  0  0  0  0  0
    6.1632   -6.1224   24.9588 C   0  0  0  0  0  0  0  0  0  0  0  0
    6.8743   -5.0974   25.5897 C   0  0  0  0  0  0  0  0  0  0  0  0
    7.3719   -4.0312   24.8337 C   0  0  0  0  0  0  0  0  0  0  0  0
    9.0280   -2.2207   23.0384 C   0  0  0  0  0  0  0  0  0  0  0  0
    9.5006   -1.0745   22.3684 C   0  0  0  0  0  0  0  0  0  0  0  0
   10.8936   -0.5654   22.7400 C   0  0  0  0  0  0  0  0  0  0  0  0
   11.9129   -1.5003   23.0094 C   0  0  0  0  0  0  0  0  0  0  0  0
   13.1969   -1.0312   23.3641 C   0  0  0  0  0  0  0  0  0  0  0  0
   13.4558    0.3448   23.4652 C   0  0  0  0  0  0  0  0  0  0  0  0
   12.4366    1.2737   23.1997 C   0  0  0  0  0  0  0  0  0  0  0  0
   11.7682    3.5127   22.7874 C   0  0  1  0  0  0  0  0  0  0  0  0
   12.3870    4.9037   22.8704 C   0  0  1  0  0  0  0  0  0  0  0  0
   13.8008    4.8180   22.2999 C   0  0  1  0  0  0  0  0  0  0  0  0
   11.1565    0.8206   22.8361 C   0  0  0  0  0  0  0  0  0  0  0  0
    7.4351   -0.9016   21.1012 N   0  0  0  0  0  0  0  0  0  0  0  0
    6.2827    0.4309   17.7939 N   0  0  0  0  0  0  0  0  0  0  0  0
    6.0113   -4.9856   20.1880 N   0  0  0  0  0  0  0  0  0  0  0  0
   14.5012   -2.1761   23.7264 Cl  0  0  0  0  0  0  0  0  0  0  0  0
    5.9293   -2.4245   21.5273 H   0  0  0  0  0  0  0  0  0  0  0  0
    5.4037   -6.8810   23.0882 H   0  0  0  0  0  0  0  0  0  0  0  0
    7.9894   -0.6711   18.4979 H   0  0  0  0  0  0  0  0  0  0  0  0
    4.4636    1.5292   17.3990 H   0  0  0  0  0  0  0  0  0  0  0  0
    3.6982    1.4912   19.7642 H   0  0  0  0  0  0  0  0  0  0  0  0
    5.0637    0.3273   21.4888 H   0  0  0  0  0  0  0  0  0  0  0  0
    5.7760   -6.9458   25.5405 H   0  0  0  0  0  0  0  0  0  0  0  0
    7.0388   -5.1288   26.6566 H   0  0  0  0  0  0  0  0  0  0  0  0
    7.9149   -3.2372   25.3246 H   0  0  0  0  0  0  0  0  0  0  0  0
    9.6386   -2.6959   23.7919 H   0  0  0  0  0  0  0  0  0  0  0  0
   11.7150   -2.5602   22.9457 H   0  0  0  0  0  0  0  0  0  0  0  0
   14.4397    0.6893   23.7474 H   0  0  0  0  0  0  0  0  0  0  0  0
   11.5310    3.2614   21.7430 H   0  0  0  0  0  0  0  0  0  0  0  0
   10.8513    3.4653   23.3932 H   0  0  0  0  0  0  0  0  0  0  0  0
   11.7885    5.6157   22.2829 H   0  0  0  0  0  0  0  0  0  0  0  0
   12.4256    5.2347   23.9187 H   0  0  0  0  0  0  0  0  0  0  0  0
   14.2760    5.8091   22.3457 H   0  0  0  0  0  0  0  0  0  0  0  0
   14.3910    4.1009   22.8892 H   0  0  0  0  0  0  0  0  0  0  0  0
   13.7541    4.4820   21.2535 H   0  0  0  0  0  0  0  0  0  0  0  0
   10.3716    1.5331   22.6296 H   0  0  0  0  0  0  0  0  0  0  0  0
  1  2  2  0
  1 29  1  0
  1 33  1  0
  2  3  1  0
  2 18  1  0
  3  4  2  0
  3 17  1  0
  4  5  1  0
  4  6  1  0
  5 31  3  0
  6 15  2  0
  6 34  1  0
  7  8  2  0
  8 19  1  0
  8 29  1  0
  9 10  2  0
  9 13  1  0
  9 29  1  0
 10 30  1  0
 10 35  1  0
 11 12  1  0
 11 30  2  0
 11 36  1  0
 12 13  2  0
 12 37  1  0
 13 38  1  0
 14 24  1  0
 14 25  1  0
 15 16  1  0
 15 39  1  0
 16 17  2  0
 16 40  1  0
 17 41  1  0
 18 19  2  0
 18 42  1  0
 19 20  1  0
 20 21  2  0
 20 28  1  0
 21 22  1  0
 21 43  1  0
 22 23  2  0
 22 32  1  0
 23 24  1  0
 23 44  1  0
 24 28  2  0
 25 26  1  0
 25 45  1  6
 25 46  1  0
 26 27  1  0
 26 47  1  6
 26 48  1  0
 27 49  1  6
 27 50  1  0
 27 51  1  0
 28 52  1  0
M  END
$$$$
