LIG(A-306)
     RDKit          3D

 54 58  0  0  1  0  0  0  0  0999 V2000
    8.2890    6.7794   22.5310 N   0  0  0  0  0  0  0  0  0  0  0  0
    7.7022    5.8066   22.6079 C   0  0  0  0  0  0  0  0  0  0  0  0
    6.9978    4.5231   22.6951 C   0  0  2  0  0  0  0  0  0  0  0  0
    5.7892    4.3563   21.7977 C   0  0  1  0  0  0  0  0  0  0  0  0
    5.5908    4.5515   23.2544 C   0  0  1  0  0  0  0  0  0  0  0  0
    7.9672    3.3763   22.9620 C   0  0  1  0  0  0  0  0  0  0  0  0
    8.2512    2.8082   24.6293 S   0  0  2  0  0  0  0  0  0  0  0  0
    7.0188    2.3224   25.1639 O   0  0  0  0  0  0  0  0  0  0  0  0
    8.9599    3.8301   25.3318 O   0  0  0  0  0  0  0  0  0  0  0  0
    9.2523    1.5319   24.5005 N   0  0  0  0  0  0  0  0  0  0  0  0
    8.8208    0.1283   24.3584 C   0  0  1  0  0  0  0  0  0  0  0  0
   10.6778    1.7129   24.7946 C   0  0  1  0  0  0  0  0  0  0  0  0
   11.5148    0.8901   23.8428 C   0  0  0  0  0  0  0  0  0  0  0  0
   10.9898   -0.2036   23.1310 C   0  0  0  0  0  0  0  0  0  0  0  0
   11.8452   -0.9813   22.3473 C   0  0  0  0  0  0  0  0  0  0  0  0
   13.1805   -0.6372   22.2413 C   0  0  0  0  0  0  0  0  0  0  0  0
   14.2296   -1.5957   21.2360 Cl  0  0  0  0  0  0  0  0  0  0  0  0
   13.6960    0.4575   22.8940 C   0  0  0  0  0  0  0  0  0  0  0  0
   12.8636    1.2099   23.7005 C   0  0  0  0  0  0  0  0  0  0  0  0
    9.4926   -0.4680   23.1193 C   0  0  2  0  0  0  0  0  0  0  0  0
    8.8670    0.1515   21.8674 C   0  0  0  0  0  0  0  0  0  0  0  0
    9.3532    1.1400   21.3210 O   0  0  0  0  0  0  0  0  0  0  0  0
    7.7311   -0.4560   21.4337 N   0  0  0  0  0  0  0  0  0  0  0  0
    6.9905   -0.0706   20.2814 C   0  0  0  0  0  0  0  0  0  0  0  0
    7.5129   -0.2943   19.0077 C   0  0  0  0  0  0  0  0  0  0  0  0
    6.9483    0.1549   17.8776 N   0  0  0  0  0  0  0  0  0  0  0  0
    5.8143    0.8556   17.9791 C   0  0  0  0  0  0  0  0  0  0  0  0
    5.7841    0.6410   20.3589 C   0  0  0  0  0  0  0  0  0  0  0  0
    4.9731    0.9977   21.4023 N   0  0  0  0  0  0  0  0  0  0  0  0
    5.1149    0.7344   22.8287 C   0  0  1  0  0  0  0  0  0  0  0  0
    5.1655    1.1388   19.1881 C   0  0  0  0  0  0  0  0  0  0  0  0
    3.9985    1.7891   19.6596 C   0  0  0  0  0  0  0  0  0  0  0  0
    3.8840    1.6971   20.9671 N   0  0  0  0  0  0  0  0  0  0  0  0
    5.5137    5.1564   21.0949 H   0  0  0  0  0  0  0  0  0  0  0  0
    5.5760    3.3782   21.3417 H   0  0  0  0  0  0  0  0  0  0  0  0
    5.2308    3.7178   23.8752 H   0  0  0  0  0  0  0  0  0  0  0  0
    5.1686    5.4959   23.6283 H   0  0  0  0  0  0  0  0  0  0  0  0
    7.5982    2.5111   22.3916 H   0  0  0  0  0  0  0  0  0  0  0  0
    8.9438    3.6887   22.5637 H   0  0  0  0  0  0  0  0  0  0  0  0
    9.1171   -0.4423   25.2509 H   0  0  0  0  0  0  0  0  0  0  0  0
    7.7276    0.0869   24.2430 H   0  0  0  0  0  0  0  0  0  0  0  0
   10.9398    2.7754   24.6835 H   0  0  0  0  0  0  0  0  0  0  0  0
   10.8797    1.3914   25.8270 H   0  0  0  0  0  0  0  0  0  0  0  0
   11.4655   -1.8478   21.8262 H   0  0  0  0  0  0  0  0  0  0  0  0
   14.7358    0.7255   22.7781 H   0  0  0  0  0  0  0  0  0  0  0  0
   13.2656    2.0609   24.2301 H   0  0  0  0  0  0  0  0  0  0  0  0
    9.3188   -1.5542   23.1060 H   0  0  0  0  0  0  0  0  0  0  0  0
    7.3902   -1.2321   21.9642 H   0  0  0  0  0  0  0  0  0  0  0  0
    8.4271   -0.8635   18.9269 H   0  0  0  0  0  0  0  0  0  0  0  0
    5.3687    1.2281   17.0686 H   0  0  0  0  0  0  0  0  0  0  0  0
    6.0527    1.1791   23.1928 H   0  0  0  0  0  0  0  0  0  0  0  0
    4.2652    1.1770   23.3693 H   0  0  0  0  0  0  0  0  0  0  0  0
    5.1333   -0.3518   23.0008 H   0  0  0  0  0  0  0  0  0  0  0  0
    3.2895    2.2980   19.0235 H   0  0  0  0  0  0  0  0  0  0  0  0
  1  2  3  0
  3  2  1  6
  3  4  1  0
  3  5  1  0
  3  6  1  0
  4  5  1  0
  4 34  1  6
  4 35  1  0
  5 36  1  1
  5 37  1  0
  6  7  1  0
  6 38  1  6
  6 39  1  0
  7  8  2  0
  7  9  2  0
  7 10  1  6
 10 11  1  0
 10 12  1  0
 11 20  1  0
 11 40  1  1
 11 41  1  0
 12 13  1  0
 12 42  1  1
 12 43  1  0
 13 14  2  0
 13 19  1  0
 14 15  1  0
 14 20  1  0
 15 16  2  0
 15 44  1  0
 16 17  1  0
 16 18  1  0
 18 19  2  0
 18 45  1  0
 19 46  1  0
 20 21  1  0
 20 47  1  6
 21 22  2  0
 21 23  1  0
 23 24  1  0
 23 48  1  0
 24 25  2  0
 24 28  1  0
 25 26  1  0
 25 49  1  0
 26 27  2  0
 27 31  1  0
 27 50  1  0
 28 29  1  0
 28 31  2  0
 29 30  1  0
 29 33  1  0
 30 51  1  1
 30 52  1  0
 30 53  1  0
 31 32  1  0
 32 33  2  0
 32 54  1  0
M  END
$$$$
