LIG(A-305)
     RDKit          3D

 37 38  0  0  1  0  0  0  0  0999 V2000
    8.2475   -3.1064   20.4173 C   0  0  1  0  0  0  0  0  0  0  0  0
    8.1835   -1.6954   20.9732 C   0  0  0  0  0  0  0  0  0  0  0  0
    7.3104   -0.9254   20.6012 O   0  0  0  0  0  0  0  0  0  0  0  0
    9.0905   -1.3513   21.9242 N   0  0  0  0  0  0  0  0  0  0  0  0
    8.7315   -0.2463   22.8301 C   0  0  2  0  0  0  0  0  0  0  0  0
    8.6724    1.1307   22.1681 C   0  0  0  0  0  0  0  0  0  0  0  0
    9.4454    1.4367   21.2640 O   0  0  0  0  0  0  0  0  0  0  0  0
    7.6594    1.9167   22.5760 N   0  0  0  0  0  0  0  0  0  0  0  0
    7.8324    3.2847   22.7540 N   0  0  0  0  0  0  0  0  0  0  0  0
    8.8593    4.0527   23.1479 C   0  0  0  0  0  0  0  0  0  0  0  0
    8.9483    5.2417   22.8329 O   0  0  0  0  0  0  0  0  0  0  0  0
    9.9004    3.3678   23.9779 C   0  0  1  0  0  0  0  0  0  0  0  0
   10.3525   -2.0943   22.0562 C   0  0  1  0  0  0  0  0  0  0  0  0
   11.4345   -1.2232   22.6321 C   0  0  0  0  0  0  0  0  0  0  0  0
   12.7375   -1.2582   22.1401 C   0  0  0  0  0  0  0  0  0  0  0  0
   13.6775   -0.3411   22.5820 C   0  0  0  0  0  0  0  0  0  0  0  0
   13.3375    0.5859   23.5410 C   0  0  0  0  0  0  0  0  0  0  0  0
   12.0565    0.6109   24.0660 C   0  0  0  0  0  0  0  0  0  0  0  0
   11.0885   -0.2802   23.6091 C   0  0  0  0  0  0  0  0  0  0  0  0
    9.6515   -0.2172   24.0571 C   0  0  1  0  0  0  0  0  0  0  0  0
    7.4307   -3.2541   19.6955 H   0  0  0  0  0  0  0  0  0  0  0  0
    9.2136   -3.2585   19.9137 H   0  0  0  0  0  0  0  0  0  0  0  0
    8.1450   -3.8295   21.2399 H   0  0  0  0  0  0  0  0  0  0  0  0
    7.7190   -0.4538   23.2067 H   0  0  0  0  0  0  0  0  0  0  0  0
    6.7641    1.5087   22.7549 H   0  0  0  0  0  0  0  0  0  0  0  0
    7.0099    3.8125   22.5415 H   0  0  0  0  0  0  0  0  0  0  0  0
   10.6977    4.0826   24.2302 H   0  0  0  0  0  0  0  0  0  0  0  0
    9.4410    2.9895   24.9030 H   0  0  0  0  0  0  0  0  0  0  0  0
   10.3273    2.5277   23.4104 H   0  0  0  0  0  0  0  0  0  0  0  0
   10.1941   -2.9569   22.7200 H   0  0  0  0  0  0  0  0  0  0  0  0
   10.6666   -2.4485   21.0633 H   0  0  0  0  0  0  0  0  0  0  0  0
   13.0163   -2.0040   21.4104 H   0  0  0  0  0  0  0  0  0  0  0  0
   14.6773   -0.3537   22.1739 H   0  0  0  0  0  0  0  0  0  0  0  0
   14.0735    1.2973   23.8855 H   0  0  0  0  0  0  0  0  0  0  0  0
   11.8062    1.3264   24.8353 H   0  0  0  0  0  0  0  0  0  0  0  0
    9.4833    0.7130   24.6196 H   0  0  0  0  0  0  0  0  0  0  0  0
    9.4303   -1.0806   24.7017 H   0  0  0  0  0  0  0  0  0  0  0  0
  1  2  1  0
  1 21  1  6
  1 22  1  0
  1 23  1  0
  2  3  2  0
  2  4  1  0
  4  5  1  0
  4 13  1  0
  5  6  1  0
  5 20  1  0
  5 24  1  1
  6  7  2  0
  6  8  1  0
  8  9  1  0
  8 25  1  0
  9 10  1  0
  9 26  1  0
 10 11  2  0
 10 12  1  0
 12 27  1  1
 12 28  1  0
 12 29  1  0
 13 14  1  0
 13 30  1  1
 13 31  1  0
 14 15  2  0
 14 19  1  0
 15 16  1  0
 15 32  1  0
 16 17  2  0
 16 33  1  0
 17 18  1  0
 17 34  1  0
 18 19  2  0
 18 35  1  0
 19 20  1  0
 20 36  1  1
 20 37  1  0
M  END
$$$$
