LIG(A-307)
     RDKit          3D

 52 55  0  0  0  0  0  0  0  0999 V2000
    6.9229   -2.0675   21.7564 C   0  0  0  0  0  0  0  0  0  0  0  0
    7.7279   -2.7594   22.7176 C   0  0  0  0  0  0  0  0  0  0  0  0
    7.1745   -3.9798   23.4447 C   0  0  0  0  0  0  0  0  0  0  0  0
    6.4493   -5.0127   22.8118 C   0  0  0  0  0  0  0  0  0  0  0  0
    6.1955   -5.0058   21.3078 C   0  0  0  0  0  0  0  0  0  0  0  0
    5.9508   -6.0851   23.5713 C   0  0  0  0  0  0  0  0  0  0  0  0
    9.1498    0.7216   20.7769 O   0  0  0  0  0  0  0  0  0  0  0  0
    8.7040   -0.4228   21.4189 C   0  0  0  0  0  0  0  0  0  0  0  0
    6.6185   -0.2294   20.1021 C   0  0  0  0  0  0  0  0  0  0  0  0
    7.0549   -0.2023   18.7691 C   0  0  0  0  0  0  0  0  0  0  0  0
    5.0634    1.0407   18.1532 C   0  0  0  0  0  0  0  0  0  0  0  0
    4.6271    1.0137   19.4881 C   0  0  0  0  0  0  0  0  0  0  0  0
    5.4031    0.3661   20.4638 C   0  0  0  0  0  0  0  0  0  0  0  0
   12.7272    2.6358   23.2902 O   0  0  0  0  0  0  0  0  0  0  0  0
    6.1626   -6.1224   24.9583 C   0  0  0  0  0  0  0  0  0  0  0  0
    6.8742   -5.0971   25.5901 C   0  0  0  0  0  0  0  0  0  0  0  0
    7.3718   -4.0316   24.8338 C   0  0  0  0  0  0  0  0  0  0  0  0
    9.0284   -2.2209   23.0386 C   0  0  0  0  0  0  0  0  0  0  0  0
    9.5006   -1.0742   22.3680 C   0  0  0  0  0  0  0  0  0  0  0  0
   10.8935   -0.5650   22.7403 C   0  0  0  0  0  0  0  0  0  0  0  0
   11.9128   -1.5009   23.0096 C   0  0  0  0  0  0  0  0  0  0  0  0
   13.1964   -1.0313   23.3640 C   0  0  0  0  0  0  0  0  0  0  0  0
   13.4555    0.3443   23.4657 C   0  0  0  0  0  0  0  0  0  0  0  0
   12.4364    1.2733   23.2006 C   0  0  0  0  0  0  0  0  0  0  0  0
   11.7688    3.5133   22.7872 C   0  0  1  0  0  0  0  0  0  0  0  0
   12.3870    4.9031   22.8706 C   0  0  1  0  0  0  0  0  0  0  0  0
   13.8004    4.8185   22.2999 C   0  0  1  0  0  0  0  0  0  0  0  0
   11.1563    0.8206   22.8359 C   0  0  0  0  0  0  0  0  0  0  0  0
    7.4351   -0.9009   21.1020 N   0  0  0  0  0  0  0  0  0  0  0  0
    6.2824    0.4314   17.7938 N   0  0  0  0  0  0  0  0  0  0  0  0
    6.0122   -4.9860   20.1878 N   0  0  0  0  0  0  0  0  0  0  0  0
   14.5015   -2.1764   23.7260 Cl  0  0  0  0  0  0  0  0  0  0  0  0
    5.9304   -2.4250   21.5251 H   0  0  0  0  0  0  0  0  0  0  0  0
    5.4045   -6.8811   23.0872 H   0  0  0  0  0  0  0  0  0  0  0  0
    7.9887   -0.6718   18.4972 H   0  0  0  0  0  0  0  0  0  0  0  0
    4.4632    1.5297   17.4002 H   0  0  0  0  0  0  0  0  0  0  0  0
    3.6975    1.4895   19.7637 H   0  0  0  0  0  0  0  0  0  0  0  0
    5.0641    0.3275   21.4885 H   0  0  0  0  0  0  0  0  0  0  0  0
    5.7748   -6.9457   25.5398 H   0  0  0  0  0  0  0  0  0  0  0  0
    7.0383   -5.1284   26.6571 H   0  0  0  0  0  0  0  0  0  0  0  0
    7.9153   -3.2379   25.3247 H   0  0  0  0  0  0  0  0  0  0  0  0
    9.6391   -2.6962   23.7920 H   0  0  0  0  0  0  0  0  0  0  0  0
   11.7150   -2.5607   22.9458 H   0  0  0  0  0  0  0  0  0  0  0  0
   14.4395    0.6886   23.7481 H   0  0  0  0  0  0  0  0  0  0  0  0
   11.5317    3.2625   21.7427 H   0  0  0  0  0  0  0  0  0  0  0  0
   10.8518    3.4658   23.3929 H   0  0  0  0  0  0  0  0  0  0  0  0
   11.7881    5.6151   22.2836 H   0  0  0  0  0  0  0  0  0  0  0  0
   12.4257    5.2334   23.9191 H   0  0  0  0  0  0  0  0  0  0  0  0
   14.2751    5.8098   22.3462 H   0  0  0  0  0  0  0  0  0  0  0  0
   14.3911    4.1014   22.8887 H   0  0  0  0  0  0  0  0  0  0  0  0
   13.7536    4.4830   21.2533 H   0  0  0  0  0  0  0  0  0  0  0  0
   10.3718    1.5333   22.6282 H   0  0  0  0  0  0  0  0  0  0  0  0
  1  2  2  0
  1 29  1  0
  1 33  1  0
  2  3  1  0
  2 18  1  0
  3  4  2  0
  3 17  1  0
  4  5  1  0
  4  6  1  0
  5 31  3  0
  6 15  2  0
  6 34  1  0
  7  8  2  0
  8 19  1  0
  8 29  1  0
  9 10  2  0
  9 13  1  0
  9 29  1  0
 10 30  1  0
 10 35  1  0
 11 12  1  0
 11 30  2  0
 11 36  1  0
 12 13  2  0
 12 37  1  0
 13 38  1  0
 14 24  1  0
 14 25  1  0
 15 16  1  0
 15 39  1  0
 16 17  2  0
 16 40  1  0
 17 41  1  0
 18 19  2  0
 18 42  1  0
 19 20  1  0
 20 21  2  0
 20 28  1  0
 21 22  1  0
 21 43  1  0
 22 23  2  0
 22 32  1  0
 23 24  1  0
 23 44  1  0
 24 28  2  0
 25 26  1  0
 25 45  1  6
 25 46  1  0
 26 27  1  0
 26 47  1  6
 26 48  1  0
 27 49  1  6
 27 50  1  0
 27 51  1  0
 28 52  1  0
M  END
$$$$
