LIG(A-305)
     RDKit          3D

 28 29  0  0  1  0  0  0  0  0999 V2000
    7.3441  -23.2854   -1.3555 C   0  0  1  0  0  0  0  0  0  0  0  0
    7.0343  -21.8103   -1.0335 C   0  0  1  0  0  0  0  0  0  0  0  0
    7.6213  -20.9064   -2.1146 C   0  0  1  0  0  0  0  0  0  0  0  0
    7.6226  -18.5804   -3.1326 C   0  0  0  0  0  0  0  0  0  0  0  0
    8.7295  -18.9416   -4.1247 C   0  0  1  0  0  0  0  0  0  0  0  0
    9.9598  -16.8088   -4.0848 C   0  0  0  0  0  0  0  0  0  0  0  0
   10.2448  -15.7988   -4.9818 C   0  0  0  0  0  0  0  0  0  0  0  0
    9.6547  -16.1587   -6.1838 C   0  0  0  0  0  0  0  0  0  0  0  0
    6.0807  -19.2442   -1.2334 C   0  0  0  0  0  0  0  0  0  0  0  0
    5.1205  -20.3781   -0.8774 C   0  0  0  0  0  0  0  0  0  0  0  0
    7.1195  -19.5544   -2.1835 N   0  0  0  0  0  0  0  0  0  0  0  0
    9.2426  -17.7207   -4.7177 N   0  0  0  0  0  0  0  0  0  0  0  0
    9.0525  -17.3216   -6.0087 N   0  0  0  0  0  0  0  0  0  0  0  0
    7.1718  -17.4814   -3.1515 O   0  0  0  0  0  0  0  0  0  0  0  0
    5.6393  -21.6911   -0.8994 O   0  0  0  0  0  0  0  0  0  0  0  0
    6.9179  -23.9295   -0.5723 H   0  0  0  0  0  0  0  0  0  0  0  0
    6.9019  -23.5490   -2.3277 H   0  0  0  0  0  0  0  0  0  0  0  0
    8.4336  -23.4305   -1.3968 H   0  0  0  0  0  0  0  0  0  0  0  0
    7.5214  -21.5625   -0.0790 H   0  0  0  0  0  0  0  0  0  0  0  0
    8.7068  -20.8491   -1.9455 H   0  0  0  0  0  0  0  0  0  0  0  0
    7.4263  -21.3825   -3.0869 H   0  0  0  0  0  0  0  0  0  0  0  0
    9.5406  -19.4664   -3.5986 H   0  0  0  0  0  0  0  0  0  0  0  0
    8.3220  -19.5923   -4.9123 H   0  0  0  0  0  0  0  0  0  0  0  0
   10.2679  -16.8468   -3.0504 H   0  0  0  0  0  0  0  0  0  0  0  0
   10.8159  -14.9034   -4.7857 H   0  0  0  0  0  0  0  0  0  0  0  0
    9.6823  -15.5891   -7.1010 H   0  0  0  0  0  0  0  0  0  0  0  0
    5.9859  -18.2613   -0.7960 H   0  0  0  0  0  0  0  0  0  0  0  0
    4.0898  -20.1837   -0.6200 H   0  0  0  0  0  0  0  0  0  0  0  0
  1  2  1  0
  1 16  1  1
  1 17  1  0
  1 18  1  0
  2  3  1  0
  2 15  1  0
  2 19  1  1
  3 11  1  0
  3 20  1  1
  3 21  1  0
  4  5  1  0
  4 11  1  0
  4 14  2  0
  5 12  1  0
  5 22  1  1
  5 23  1  0
  6  7  2  0
  6 12  1  0
  6 24  1  0
  7  8  1  0
  7 25  1  0
  8 13  2  0
  8 26  1  0
  9 10  2  0
  9 11  1  0
  9 27  1  0
 10 15  1  0
 10 28  1  0
 12 13  1  0
M  END
$$$$
