LIG(A-306)
     RDKit          3D

 46 50  0  0  1  0  0  0  0  0999 V2000
    9.4234    1.3904   21.0922 O   0  0  0  0  0  0  0  0  0  0  0  0
    9.0034    0.4508   21.7522 C   0  0  0  0  0  0  0  0  0  0  0  0
    9.7010    0.0345   23.0472 C   0  0  2  0  0  0  0  0  0  0  0  0
    9.1255    0.9481   24.1569 C   0  0  1  0  0  0  0  0  0  0  0  0
    9.9539    2.1968   24.3671 C   0  0  1  0  0  0  0  0  0  0  0  0
   11.3197    1.8801   24.6632 O   0  0  0  0  0  0  0  0  0  0  0  0
   11.2291    0.1730   22.9385 C   0  0  0  0  0  0  0  0  0  0  0  0
   11.9279    1.1147   23.7019 C   0  0  0  0  0  0  0  0  0  0  0  0
   13.2910    1.3118   23.5529 C   0  0  0  0  0  0  0  0  0  0  0  0
   13.9876    0.5416   22.6378 C   0  0  0  0  0  0  0  0  0  0  0  0
   11.9501   -0.6146   22.0414 C   0  0  0  0  0  0  0  0  0  0  0  0
   13.3128   -0.4162   21.9064 C   0  0  0  0  0  0  0  0  0  0  0  0
   14.1992   -1.3914   20.7664 Cl  0  0  0  0  0  0  0  0  0  0  0  0
    7.8645   -0.2241   21.3873 N   0  0  0  0  0  0  0  0  0  0  0  0
    7.5137   -1.5725   21.8602 C   0  0  1  0  0  0  0  0  0  0  0  0
    8.7068   -2.2874   22.4576 C   0  0  1  0  0  0  0  0  0  0  0  0
    9.4057   -1.4182   23.4968 C   0  0  2  0  0  0  0  0  0  0  0  0
    7.0937    0.1998   20.2534 C   0  0  0  0  0  0  0  0  0  0  0  0
    5.9174    0.9884   20.4352 C   0  0  0  0  0  0  0  0  0  0  0  0
    5.3983    1.3638   21.7048 C   0  0  0  0  0  0  0  0  0  0  0  0
    4.2851    2.1492   21.8051 C   0  0  0  0  0  0  0  0  0  0  0  0
    3.6379    2.6117   20.6633 C   0  0  0  0  0  0  0  0  0  0  0  0
    4.0889    2.2668   19.4194 C   0  0  0  0  0  0  0  0  0  0  0  0
    5.2264    1.4352   19.2707 C   0  0  0  0  0  0  0  0  0  0  0  0
    5.7218    1.0260   18.0103 C   0  0  0  0  0  0  0  0  0  0  0  0
    6.7951    0.2691   17.8433 N   0  0  0  0  0  0  0  0  0  0  0  0
    7.4537   -0.1167   18.9446 C   0  0  0  0  0  0  0  0  0  0  0  0
    8.1046    1.2454   23.8750 H   0  0  0  0  0  0  0  0  0  0  0  0
    9.0954    0.3819   25.0996 H   0  0  0  0  0  0  0  0  0  0  0  0
    9.9191    2.8065   23.4521 H   0  0  0  0  0  0  0  0  0  0  0  0
    9.5304    2.7693   25.2054 H   0  0  0  0  0  0  0  0  0  0  0  0
   13.8037    2.0570   24.1432 H   0  0  0  0  0  0  0  0  0  0  0  0
   15.0483    0.6881   22.4972 H   0  0  0  0  0  0  0  0  0  0  0  0
   11.4493   -1.3726   21.4574 H   0  0  0  0  0  0  0  0  0  0  0  0
    6.7290   -1.4881   22.6265 H   0  0  0  0  0  0  0  0  0  0  0  0
    7.1351   -2.1602   21.0109 H   0  0  0  0  0  0  0  0  0  0  0  0
    8.3652   -3.2163   22.9377 H   0  0  0  0  0  0  0  0  0  0  0  0
    9.4188   -2.5298   21.6550 H   0  0  0  0  0  0  0  0  0  0  0  0
    8.7660   -1.3748   24.3906 H   0  0  0  0  0  0  0  0  0  0  0  0
   10.3624   -1.8966   23.7535 H   0  0  0  0  0  0  0  0  0  0  0  0
    5.8914    1.0228   22.6031 H   0  0  0  0  0  0  0  0  0  0  0  0
    3.9036    2.4140   22.7802 H   0  0  0  0  0  0  0  0  0  0  0  0
    2.7713    3.2489   20.7606 H   0  0  0  0  0  0  0  0  0  0  0  0
    3.5738    2.6314   18.5430 H   0  0  0  0  0  0  0  0  0  0  0  0
    5.1906    1.3517   17.1282 H   0  0  0  0  0  0  0  0  0  0  0  0
    8.3367   -0.7231   18.8067 H   0  0  0  0  0  0  0  0  0  0  0  0
  1  2  2  0
  3  2  1  6
  2 14  1  0
  3  4  1  0
  3  7  1  0
  3 17  1  0
  4  5  1  0
  4 28  1  6
  4 29  1  0
  5  6  1  0
  5 30  1  6
  5 31  1  0
  6  8  1  0
  7  8  2  0
  7 11  1  0
  8  9  1  0
  9 10  2  0
  9 32  1  0
 10 12  1  0
 10 33  1  0
 11 12  2  0
 11 34  1  0
 12 13  1  0
 14 15  1  0
 14 18  1  0
 15 16  1  0
 15 35  1  1
 15 36  1  0
 16 17  1  0
 16 37  1  1
 16 38  1  0
 17 39  1  1
 17 40  1  0
 18 19  2  0
 18 27  1  0
 19 20  1  0
 19 24  1  0
 20 21  2  0
 20 41  1  0
 21 22  1  0
 21 42  1  0
 22 23  2  0
 22 43  1  0
 23 24  1  0
 23 44  1  0
 24 25  2  0
 25 26  1  0
 25 45  1  0
 26 27  2  0
 27 46  1  0
M  END
$$$$
