LIG(A-305)
     RDKit          3D

 37 39  0  0  1  0  0  0  0  0999 V2000
    5.7443   -4.5428   19.8646 O   0  0  0  0  0  0  0  0  0  0  0  0
    6.5013   -3.9017   20.5795 C   0  0  0  0  0  0  0  0  0  0  0  0
    6.1343   -3.0167   21.5365 N   0  0  0  0  0  0  0  0  0  0  0  0
    8.0183   -3.9697   20.5094 C   0  0  2  0  0  0  0  0  0  0  0  0
    8.4254   -5.1996   21.0894 O   0  0  0  0  0  0  0  0  0  0  0  0
    8.3933   -2.8896   21.5013 C   0  0  0  0  0  0  0  0  0  0  0  0
    7.2313   -2.4086   22.1004 C   0  0  0  0  0  0  0  0  0  0  0  0
    9.6283   -2.3735   21.8762 C   0  0  0  0  0  0  0  0  0  0  0  0
    9.7033   -1.4035   22.8622 C   0  0  0  0  0  0  0  0  0  0  0  0
    8.5503   -0.9295   23.4693 C   0  0  0  0  0  0  0  0  0  0  0  0
    7.2963   -1.4136   23.0944 C   0  0  0  0  0  0  0  0  0  0  0  0
    6.0994   -0.8376   23.7624 C   0  0  0  0  0  0  0  0  0  0  0  0
    4.9874   -1.2917   23.6795 O   0  0  0  0  0  0  0  0  0  0  0  0
    6.4143    0.2274   24.5064 O   0  0  0  0  0  0  0  0  0  0  0  0
    5.4824    0.5664   25.5754 C   0  0  1  0  0  0  0  0  0  0  0  0
    6.3035    0.8645   26.7964 C   0  0  0  0  0  0  0  0  0  0  0  0
    5.8475    1.7525   27.7654 C   0  0  0  0  0  0  0  0  0  0  0  0
    7.5695    0.3125   26.9403 C   0  0  0  0  0  0  0  0  0  0  0  0
    8.3656    0.6506   28.0212 C   0  0  0  0  0  0  0  0  0  0  0  0
    7.9016    1.5516   28.9642 C   0  0  0  0  0  0  0  0  0  0  0  0
    6.6405    2.1226   28.8453 C   0  0  0  0  0  0  0  0  0  0  0  0
    6.1716    3.1716   29.8233 C   0  0  1  0  0  0  0  0  0  0  0  0
    5.1878   -2.8295   21.7993 H   0  0  0  0  0  0  0  0  0  0  0  0
    8.4113   -3.7840   19.4990 H   0  0  0  0  0  0  0  0  0  0  0  0
    7.7075   -5.5662   21.5921 H   0  0  0  0  0  0  0  0  0  0  0  0
   10.5295   -2.7289   21.3988 H   0  0  0  0  0  0  0  0  0  0  0  0
   10.6656   -1.0140   23.1599 H   0  0  0  0  0  0  0  0  0  0  0  0
    8.6236   -0.1774   24.2408 H   0  0  0  0  0  0  0  0  0  0  0  0
    4.8898    1.4493   25.2940 H   0  0  0  0  0  0  0  0  0  0  0  0
    4.8082   -0.2804   25.7713 H   0  0  0  0  0  0  0  0  0  0  0  0
    4.8531    2.1643   27.6763 H   0  0  0  0  0  0  0  0  0  0  0  0
    7.9362   -0.3862   26.2029 H   0  0  0  0  0  0  0  0  0  0  0  0
    9.3467    0.2123   28.1286 H   0  0  0  0  0  0  0  0  0  0  0  0
    8.5283    1.8143   29.8037 H   0  0  0  0  0  0  0  0  0  0  0  0
    5.2333    2.8419   30.2934 H   0  0  0  0  0  0  0  0  0  0  0  0
    6.9380    3.3187   30.5984 H   0  0  0  0  0  0  0  0  0  0  0  0
    6.0017    4.1191   29.2910 H   0  0  0  0  0  0  0  0  0  0  0  0
  1  2  2  0
  2  3  1  0
  2  4  1  0
  3  7  1  0
  3 23  1  0
  4  5  1  0
  4  6  1  0
  4 24  1  6
  5 25  1  0
  6  7  2  0
  6  8  1  0
  7 11  1  0
  8  9  2  0
  8 26  1  0
  9 10  1  0
  9 27  1  0
 10 11  2  0
 10 28  1  0
 11 12  1  0
 12 13  2  0
 12 14  1  0
 14 15  1  0
 15 16  1  0
 15 29  1  6
 15 30  1  0
 16 17  2  0
 16 18  1  0
 17 21  1  0
 17 31  1  0
 18 19  2  0
 18 32  1  0
 19 20  1  0
 19 33  1  0
 20 21  2  0
 20 34  1  0
 21 22  1  0
 22 35  1  1
 22 36  1  0
 22 37  1  0
M  END
$$$$
