LIG(A-302)
     RDKit          3D

 66 68  0  0  1  0  0  0  0  0999 V2000
   12.9612    6.5631   23.9830 F   0  0  0  0  0  0  0  0  0  0  0  0
   12.7358    5.2891   23.5559 C   0  0  0  0  0  0  0  0  0  0  0  0
   11.5524    4.6801   23.9142 C   0  0  0  0  0  0  0  0  0  0  0  0
   13.6959    4.6772   22.7964 C   0  0  0  0  0  0  0  0  0  0  0  0
   13.4597    3.3752   22.3815 C   0  0  0  0  0  0  0  0  0  0  0  0
   12.2773    2.7342   22.7229 C   0  0  0  0  0  0  0  0  0  0  0  0
   11.3091    3.3771   23.4853 C   0  0  0  0  0  0  0  0  0  0  0  0
   10.0138    2.6799   23.8382 C   0  0  1  0  0  0  0  0  0  0  0  0
    8.7949    3.2082   23.0806 C   0  0  1  0  0  0  0  0  0  0  0  0
    7.8683    2.1433   22.7132 N   0  0  0  0  0  0  0  0  0  0  0  0
    8.0803    1.3593   21.6556 C   0  0  0  0  0  0  0  0  0  0  0  0
    9.0421    1.4915   20.9096 O   0  0  0  0  0  0  0  0  0  0  0  0
    7.0369    0.2510   21.4227 C   0  0  1  0  0  0  0  0  0  0  0  0
    6.3659    0.3726   20.0588 C   0  0  0  0  0  0  0  0  0  0  0  0
    5.2054    1.1186   19.9028 C   0  0  0  0  0  0  0  0  0  0  0  0
    4.7103    1.3801   18.6368 C   0  0  0  0  0  0  0  0  0  0  0  0
    5.3878    0.8638   17.5510 C   0  0  0  0  0  0  0  0  0  0  0  0
    6.4922    0.1154   17.6621 N   0  0  0  0  0  0  0  0  0  0  0  0
    6.9543   -0.1173   18.8989 C   0  0  0  0  0  0  0  0  0  0  0  0
    7.5588   -1.0980   21.7761 N   0  0  0  0  0  0  0  0  0  0  0  0
    6.7995   -2.2166   21.5618 C   0  0  0  0  0  0  0  0  0  0  0  0
    7.4412   -3.5782   21.7752 C   0  0  1  0  0  0  0  0  0  0  0  0
    7.2892   -4.4989   20.5539 C   0  0  1  0  0  0  0  0  0  0  0  0
    5.6289   -2.1438   21.2059 O   0  0  0  0  0  0  0  0  0  0  0  0
    8.8428   -1.1628   22.4268 C   0  0  0  0  0  0  0  0  0  0  0  0
   10.0032   -1.4131   21.6928 C   0  0  0  0  0  0  0  0  0  0  0  0
   11.2322   -1.4841   22.3327 C   0  0  0  0  0  0  0  0  0  0  0  0
   11.3387   -1.3086   23.7115 C   0  0  0  0  0  0  0  0  0  0  0  0
   12.6858   -1.4058   24.4443 C   0  0  1  0  0  0  0  0  0  0  0  0
   12.5781   -2.4322   25.5797 C   0  0  1  0  0  0  0  0  0  0  0  0
   13.8424   -1.8313   23.5264 C   0  0  1  0  0  0  0  0  0  0  0  0
   13.0512   -0.0455   25.0477 C   0  0  1  0  0  0  0  0  0  0  0  0
   10.1752   -1.0503   24.4335 C   0  0  0  0  0  0  0  0  0  0  0  0
    8.9403   -0.9843   23.8087 C   0  0  0  0  0  0  0  0  0  0  0  0
   10.8257    5.2043   24.5172 H   0  0  0  0  0  0  0  0  0  0  0  0
   14.6073    5.1913   22.5290 H   0  0  0  0  0  0  0  0  0  0  0  0
   14.1998    2.8575   21.7896 H   0  0  0  0  0  0  0  0  0  0  0  0
   12.1067    1.7206   22.3912 H   0  0  0  0  0  0  0  0  0  0  0  0
   10.1246    1.6093   23.6111 H   0  0  0  0  0  0  0  0  0  0  0  0
    9.8340    2.8095   24.9157 H   0  0  0  0  0  0  0  0  0  0  0  0
    8.2672    3.9316   23.7195 H   0  0  0  0  0  0  0  0  0  0  0  0
    9.1382    3.7105   22.1641 H   0  0  0  0  0  0  0  0  0  0  0  0
    7.0508    1.9970   23.2703 H   0  0  0  0  0  0  0  0  0  0  0  0
    6.2395    0.4560   22.1521 H   0  0  0  0  0  0  0  0  0  0  0  0
    4.6873    1.4961   20.7720 H   0  0  0  0  0  0  0  0  0  0  0  0
    3.8174    1.9726   18.5024 H   0  0  0  0  0  0  0  0  0  0  0  0
    5.0079    1.0739   16.5621 H   0  0  0  0  0  0  0  0  0  0  0  0
    7.8413   -0.7251   19.0005 H   0  0  0  0  0  0  0  0  0  0  0  0
    8.5129   -3.4352   21.9779 H   0  0  0  0  0  0  0  0  0  0  0  0
    6.9653   -4.0605   22.6417 H   0  0  0  0  0  0  0  0  0  0  0  0
    7.7693   -5.4666   20.7615 H   0  0  0  0  0  0  0  0  0  0  0  0
    6.2209   -4.6570   20.3449 H   0  0  0  0  0  0  0  0  0  0  0  0
    7.7684   -4.0318   19.6809 H   0  0  0  0  0  0  0  0  0  0  0  0
    9.9443   -1.5521   20.6234 H   0  0  0  0  0  0  0  0  0  0  0  0
   12.1220   -1.6787   21.7524 H   0  0  0  0  0  0  0  0  0  0  0  0
   13.5425   -2.5018   26.1044 H   0  0  0  0  0  0  0  0  0  0  0  0
   11.7978   -2.1154   26.2873 H   0  0  0  0  0  0  0  0  0  0  0  0
   12.3165   -3.4154   25.1614 H   0  0  0  0  0  0  0  0  0  0  0  0
   14.7741   -1.8817   24.1090 H   0  0  0  0  0  0  0  0  0  0  0  0
   13.6247   -2.8203   23.0968 H   0  0  0  0  0  0  0  0  0  0  0  0
   13.9563   -1.0964   22.7158 H   0  0  0  0  0  0  0  0  0  0  0  0
   14.0161   -0.1228   25.5703 H   0  0  0  0  0  0  0  0  0  0  0  0
   13.1281    0.7027   24.2451 H   0  0  0  0  0  0  0  0  0  0  0  0
   12.2716    0.2605   25.7608 H   0  0  0  0  0  0  0  0  0  0  0  0
   10.2372   -0.8987   25.5010 H   0  0  0  0  0  0  0  0  0  0  0  0
    8.0511   -0.7943   24.3915 H   0  0  0  0  0  0  0  0  0  0  0  0
  1  2  1  0
  2  3  2  0
  2  4  1  0
  3  7  1  0
  3 35  1  0
  4  5  2  0
  4 36  1  0
  5  6  1  0
  5 37  1  0
  6  7  2  0
  6 38  1  0
  7  8  1  0
  8  9  1  0
  8 39  1  1
  8 40  1  0
  9 10  1  0
  9 41  1  1
  9 42  1  0
 10 11  1  0
 10 43  1  0
 11 12  2  0
 11 13  1  0
 13 14  1  0
 13 20  1  0
 13 44  1  1
 14 15  2  0
 14 19  1  0
 15 16  1  0
 15 45  1  0
 16 17  2  0
 16 46  1  0
 17 18  1  0
 17 47  1  0
 18 19  2  0
 19 48  1  0
 20 21  1  0
 20 25  1  0
 21 22  1  0
 21 24  2  0
 22 23  1  0
 22 49  1  1
 22 50  1  0
 23 51  1  1
 23 52  1  0
 23 53  1  0
 25 26  2  0
 25 34  1  0
 26 27  1  0
 26 54  1  0
 27 28  2  0
 27 55  1  0
 29 28  1  6
 28 33  1  0
 29 30  1  0
 29 31  1  0
 29 32  1  0
 30 56  1  1
 30 57  1  0
 30 58  1  0
 31 59  1  1
 31 60  1  0
 31 61  1  0
 32 62  1  1
 32 63  1  0
 32 64  1  0
 33 34  2  0
 33 65  1  0
 34 66  1  0
M  END
$$$$
