LIG(A-306)
     RDKit          3D

 56 60  0  0  1  0  0  0  0  0999 V2000
   14.0806   -1.5472   21.2637 Cl  0  0  0  0  0  0  0  0  0  0  0  0
   12.9416   -0.8305   22.3678 C   0  0  0  0  0  0  0  0  0  0  0  0
   11.6096   -1.1846   22.2818 C   0  0  0  0  0  0  0  0  0  0  0  0
   13.3785    0.1115   23.2669 C   0  0  0  0  0  0  0  0  0  0  0  0
   12.4604    0.7103   24.1080 C   0  0  0  0  0  0  0  0  0  0  0  0
   11.1025    0.4031   24.0340 C   0  0  0  0  0  0  0  0  0  0  0  0
   10.1524    1.1609   24.9421 C   0  0  1  0  0  0  0  0  0  0  0  0
    8.7394    0.8228   24.7261 N   0  0  0  0  0  0  0  0  0  0  0  0
    7.4723    1.7196   25.1132 S   0  0  2  0  0  0  0  0  0  0  0  0
    7.6453    2.1575   26.4532 O   0  0  0  0  0  0  0  0  0  0  0  0
    6.3084    0.9984   24.7282 O   0  0  0  0  0  0  0  0  0  0  0  0
    7.6141    3.0067   24.1793 N   0  0  0  0  0  0  0  0  0  0  0  0
    7.8380    4.4487   24.4664 C   0  0  1  0  0  0  0  0  0  0  0  0
    7.5281    3.2698   22.7163 C   0  0  1  0  0  0  0  0  0  0  0  0
    7.2589    4.7387   23.0725 C   0  0  1  0  0  0  0  0  0  0  0  0
    5.8409    4.8915   23.0645 O   0  0  0  0  0  0  0  0  0  0  0  0
    5.3218    5.2996   21.8116 C   0  0  1  0  0  0  0  0  0  0  0  0
   10.6726   -0.5478   23.0949 C   0  0  0  0  0  0  0  0  0  0  0  0
    9.1936   -0.8330   22.9329 C   0  0  1  0  0  0  0  0  0  0  0  0
    8.4586   -0.5392   24.2360 C   0  0  1  0  0  0  0  0  0  0  0  0
    8.6515   -0.0470   21.7360 C   0  0  0  0  0  0  0  0  0  0  0  0
    9.2683    0.8961   21.2391 O   0  0  0  0  0  0  0  0  0  0  0  0
    7.4685   -0.5001   21.2490 N   0  0  0  0  0  0  0  0  0  0  0  0
    6.7454   -0.0381   20.1290 C   0  0  0  0  0  0  0  0  0  0  0  0
    5.5613    0.7358   20.3411 C   0  0  0  0  0  0  0  0  0  0  0  0
    5.0103    1.0006   21.6202 C   0  0  0  0  0  0  0  0  0  0  0  0
    3.8982    1.7814   21.7593 C   0  0  0  0  0  0  0  0  0  0  0  0
    3.2761    2.3324   20.6473 C   0  0  0  0  0  0  0  0  0  0  0  0
    3.7541    2.0896   19.3913 C   0  0  0  0  0  0  0  0  0  0  0  0
    4.9022    1.2808   19.2012 C   0  0  0  0  0  0  0  0  0  0  0  0
    5.4412    0.9890   17.9242 C   0  0  0  0  0  0  0  0  0  0  0  0
    6.5233    0.2501   17.7251 N   0  0  0  0  0  0  0  0  0  0  0  0
    7.1494   -0.2359   18.8060 C   0  0  0  0  0  0  0  0  0  0  0  0
   11.2953   -1.9507   21.5886 H   0  0  0  0  0  0  0  0  0  0  0  0
   14.4235    0.3799   23.3156 H   0  0  0  0  0  0  0  0  0  0  0  0
   12.8014    1.4305   24.8370 H   0  0  0  0  0  0  0  0  0  0  0  0
   10.4099    0.9295   25.9861 H   0  0  0  0  0  0  0  0  0  0  0  0
   10.2838    2.2382   24.7622 H   0  0  0  0  0  0  0  0  0  0  0  0
    7.2457    4.8484   25.3028 H   0  0  0  0  0  0  0  0  0  0  0  0
    8.8926    4.7338   24.5947 H   0  0  0  0  0  0  0  0  0  0  0  0
    8.4618    3.0947   22.1619 H   0  0  0  0  0  0  0  0  0  0  0  0
    6.6974    2.7607   22.2056 H   0  0  0  0  0  0  0  0  0  0  0  0
    7.8353    5.4654   22.4809 H   0  0  0  0  0  0  0  0  0  0  0  0
    4.2283    5.3961   21.8810 H   0  0  0  0  0  0  0  0  0  0  0  0
    5.7585    6.2699   21.5324 H   0  0  0  0  0  0  0  0  0  0  0  0
    5.5758    4.5498   21.0478 H   0  0  0  0  0  0  0  0  0  0  0  0
    9.0760   -1.9043   22.7129 H   0  0  0  0  0  0  0  0  0  0  0  0
    8.7794   -1.2653   24.9976 H   0  0  0  0  0  0  0  0  0  0  0  0
    7.3766   -0.6406   24.0655 H   0  0  0  0  0  0  0  0  0  0  0  0
    7.0553   -1.2609   21.7494 H   0  0  0  0  0  0  0  0  0  0  0  0
    5.4769    0.5785   22.4980 H   0  0  0  0  0  0  0  0  0  0  0  0
    3.4988    1.9721   22.7444 H   0  0  0  0  0  0  0  0  0  0  0  0
    2.4061    2.9590   20.7767 H   0  0  0  0  0  0  0  0  0  0  0  0
    3.2530    2.5175   18.5357 H   0  0  0  0  0  0  0  0  0  0  0  0
    4.9388    1.3941   17.0582 H   0  0  0  0  0  0  0  0  0  0  0  0
    8.0375   -0.8280   18.6412 H   0  0  0  0  0  0  0  0  0  0  0  0
  1  2  1  0
  2  3  2  0
  2  4  1  0
  3 18  1  0
  3 34  1  0
  4  5  2  0
  4 35  1  0
  5  6  1  0
  5 36  1  0
  6  7  1  0
  6 18  2  0
  7  8  1  0
  7 37  1  1
  7 38  1  0
  9  8  1  6
  8 20  1  0
  9 10  2  0
  9 11  2  0
  9 12  1  0
 12 13  1  0
 12 14  1  0
 13 15  1  0
 13 39  1  1
 13 40  1  0
 14 15  1  0
 14 41  1  6
 14 42  1  0
 15 16  1  0
 15 43  1  6
 16 17  1  0
 17 44  1  1
 17 45  1  0
 17 46  1  0
 18 19  1  0
 19 20  1  0
 19 21  1  0
 19 47  1  6
 20 48  1  1
 20 49  1  0
 21 22  2  0
 21 23  1  0
 23 24  1  0
 23 50  1  0
 24 25  2  0
 24 33  1  0
 25 26  1  0
 25 30  1  0
 26 27  2  0
 26 51  1  0
 27 28  1  0
 27 52  1  0
 28 29  2  0
 28 53  1  0
 29 30  1  0
 29 54  1  0
 30 31  2  0
 31 32  1  0
 31 55  1  0
 32 33  2  0
 33 56  1  0
M  END
$$$$
