LIG(A-305)
     RDKit          3D

 30 31  0  0  0  0  0  0  0  0999 V2000
    7.0967   -4.4973   20.9207 N   0  0  0  0  0  0  0  0  0  0  0  0
    7.9046   -2.7024   19.4875 C   0  0  1  0  0  0  0  0  0  0  0  0
    5.8126   -3.8174   19.1968 O   0  0  0  0  0  0  0  0  0  0  0  0
    6.8406   -3.7033   19.8707 C   0  0  0  0  0  0  0  0  0  0  0  0
   10.8640   -0.6602   23.7321 C   0  0  0  0  0  0  0  0  0  0  0  0
    7.9149   -2.9652   22.5456 C   0  0  0  0  0  0  0  0  0  0  0  0
    9.1539   -2.2102   22.8254 C   0  0  0  0  0  0  0  0  0  0  0  0
   10.3529   -2.1742   22.0493 C   0  0  0  0  0  0  0  0  0  0  0  0
   11.2989   -1.2782   22.6001 C   0  0  0  0  0  0  0  0  0  0  0  0
   12.6549   -0.9863   22.0430 C   0  0  1  0  0  0  0  0  0  0  0  0
   13.5070   -0.1942   23.0228 C   0  0  1  0  0  0  0  0  0  0  0  0
   12.7480    0.9068   23.6669 C   0  0  1  0  0  0  0  0  0  0  0  0
   11.6351    0.3539   24.5240 C   0  0  2  0  0  0  0  0  0  0  0  0
    8.0098   -4.1363   21.8936 N   0  0  0  0  0  0  0  0  0  0  0  0
    6.8190   -2.4892   22.8457 O   0  0  0  0  0  0  0  0  0  0  0  0
    9.2771   -1.1482   24.2093 S   0  0  0  0  0  0  0  0  0  0  0  0
    6.6161   -5.3705   21.0017 H   0  0  0  0  0  0  0  0  0  0  0  0
    7.5923   -2.1634   18.5809 H   0  0  0  0  0  0  0  0  0  0  0  0
    8.0464   -1.9853   20.3096 H   0  0  0  0  0  0  0  0  0  0  0  0
    8.8505   -3.2292   19.2933 H   0  0  0  0  0  0  0  0  0  0  0  0
   10.5163   -2.7574   21.1551 H   0  0  0  0  0  0  0  0  0  0  0  0
   13.1603   -1.9371   21.8185 H   0  0  0  0  0  0  0  0  0  0  0  0
   12.5419   -0.4036   21.1168 H   0  0  0  0  0  0  0  0  0  0  0  0
   13.8733   -0.8760   23.8045 H   0  0  0  0  0  0  0  0  0  0  0  0
   14.3623    0.2355   22.4808 H   0  0  0  0  0  0  0  0  0  0  0  0
   13.4306    1.4964   24.2966 H   0  0  0  0  0  0  0  0  0  0  0  0
   12.3175    1.5532   22.8879 H   0  0  0  0  0  0  0  0  0  0  0  0
   12.0615   -0.1238   25.4184 H   0  0  0  0  0  0  0  0  0  0  0  0
   10.9645    1.1707   24.8290 H   0  0  0  0  0  0  0  0  0  0  0  0
    8.7581   -4.7608   22.1173 H   0  0  0  0  0  0  0  0  0  0  0  0
  1  4  1  0
  1 14  1  0
  1 17  1  0
  2  4  1  0
  2 18  1  6
  2 19  1  0
  2 20  1  0
  3  4  2  0
  5  9  2  0
  5 13  1  0
  5 16  1  0
  6  7  1  0
  6 14  1  0
  6 15  2  0
  7  8  2  0
  7 16  1  0
  8  9  1  0
  8 21  1  0
  9 10  1  0
 10 11  1  0
 10 22  1  6
 10 23  1  0
 11 12  1  0
 11 24  1  1
 11 25  1  0
 12 13  1  0
 12 26  1  1
 12 27  1  0
 13 28  1  1
 13 29  1  0
 14 30  1  0
M  END
$$$$
