LIG(A-306)
     RDKit          3D

 35 37  0  0  0  0  0  0  0  0999 V2000
  -14.8969   -2.4814  -20.3469 N   0  0  0  0  0  0  0  0  0  0  0  0
  -14.1608   -2.0425  -21.1029 C   0  0  0  0  0  0  0  0  0  0  0  0
  -13.2553   -1.4558  -22.0605 C   0  0  0  0  0  0  0  0  0  0  0  0
  -13.7453   -0.6310  -23.0691 C   0  0  0  0  0  0  0  0  0  0  0  0
  -12.8609    0.0716  -23.8693 C   0  0  0  0  0  0  0  0  0  0  0  0
  -11.4935   -0.0582  -23.6757 C   0  0  0  0  0  0  0  0  0  0  0  0
  -11.8794   -1.6107  -21.8926 C   0  0  0  0  0  0  0  0  0  0  0  0
  -10.9893   -0.9019  -22.6921 C   0  0  0  0  0  0  0  0  0  0  0  0
   -9.5006   -1.0514  -22.4858 C   0  0  1  0  0  0  0  0  0  0  0  0
   -8.9655   -0.2212  -21.3367 C   0  0  0  0  0  0  0  0  0  0  0  0
   -9.5274    0.8031  -20.9527 O   0  0  0  0  0  0  0  0  0  0  0  0
   -7.8184   -0.6937  -20.8066 N   0  0  0  0  0  0  0  0  0  0  0  0
   -7.0294   -0.1225  -19.7915 C   0  0  0  0  0  0  0  0  0  0  0  0
   -5.9693    0.7590  -20.1667 C   0  0  0  0  0  0  0  0  0  0  0  0
   -5.6645    1.1026  -21.5105 C   0  0  0  0  0  0  0  0  0  0  0  0
   -4.6257    1.9417  -21.8025 C   0  0  0  0  0  0  0  0  0  0  0  0
   -3.8424    2.4795  -20.7876 C   0  0  0  0  0  0  0  0  0  0  0  0
   -4.1010    2.1843  -19.4778 C   0  0  0  0  0  0  0  0  0  0  0  0
   -5.1725    1.3208  -19.1316 C   0  0  0  0  0  0  0  0  0  0  0  0
   -5.4928    0.9794  -17.7995 C   0  0  0  0  0  0  0  0  0  0  0  0
   -6.4857    0.1772  -17.4523 N   0  0  0  0  0  0  0  0  0  0  0  0
   -7.2233   -0.3561  -18.4302 C   0  0  0  0  0  0  0  0  0  0  0  0
  -14.8098   -0.5397  -23.2264 H   0  0  0  0  0  0  0  0  0  0  0  0
  -13.2362    0.7219  -24.6456 H   0  0  0  0  0  0  0  0  0  0  0  0
  -10.8116    0.5035  -24.2969 H   0  0  0  0  0  0  0  0  0  0  0  0
  -11.5032   -2.2850  -21.1375 H   0  0  0  0  0  0  0  0  0  0  0  0
   -9.2815   -2.1100  -22.2828 H   0  0  0  0  0  0  0  0  0  0  0  0
   -8.9879   -0.7412  -23.4083 H   0  0  0  0  0  0  0  0  0  0  0  0
   -7.4871   -1.5590  -21.1827 H   0  0  0  0  0  0  0  0  0  0  0  0
   -6.2617    0.6953  -22.3129 H   0  0  0  0  0  0  0  0  0  0  0  0
   -4.4113    2.1892  -22.8316 H   0  0  0  0  0  0  0  0  0  0  0  0
   -3.0220    3.1366  -21.0361 H   0  0  0  0  0  0  0  0  0  0  0  0
   -3.4848    2.6117  -18.7005 H   0  0  0  0  0  0  0  0  0  0  0  0
   -4.8866    1.4012  -17.0115 H   0  0  0  0  0  0  0  0  0  0  0  0
   -8.0289   -1.0167  -18.1458 H   0  0  0  0  0  0  0  0  0  0  0  0
  1  2  3  0
  2  3  1  0
  3  4  2  0
  3  7  1  0
  4  5  1  0
  4 23  1  0
  5  6  2  0
  5 24  1  0
  6  8  1  0
  6 25  1  0
  7  8  2  0
  7 26  1  0
  8  9  1  0
  9 10  1  0
  9 27  1  1
  9 28  1  0
 10 11  2  0
 10 12  1  0
 12 13  1  0
 12 29  1  0
 13 14  2  0
 13 22  1  0
 14 15  1  0
 14 19  1  0
 15 16  2  0
 15 30  1  0
 16 17  1  0
 16 31  1  0
 17 18  2  0
 17 32  1  0
 18 19  1  0
 18 33  1  0
 19 20  2  0
 20 21  1  0
 20 34  1  0
 21 22  2  0
 22 35  1  0
M  END
$$$$
