LIG(A-305)
     RDKit          3D

 26 28  0  0  1  0  0  0  0  0999 V2000
   11.9157    0.2167   22.7360 Br  0  0  0  0  0  0  0  0  0  0  0  0
   10.2888   -0.2106   21.8499 C   0  0  0  0  0  0  0  0  0  0  0  0
   10.1030   -1.4957   21.3770 C   0  0  0  0  0  0  0  0  0  0  0  0
    8.8961   -1.8159   20.7730 C   0  0  0  0  0  0  0  0  0  0  0  0
    8.4053   -3.0740   20.1191 C   0  0  0  0  0  0  0  0  0  0  0  0
    8.4934   -4.1829   20.9982 O   0  0  0  0  0  0  0  0  0  0  0  0
    9.3117    0.7662   21.7208 C   0  0  0  0  0  0  0  0  0  0  0  0
    8.0988    0.4410   21.1347 C   0  0  0  0  0  0  0  0  0  0  0  0
    7.8940   -0.8600   20.6838 C   0  0  0  0  0  0  0  0  0  0  0  0
    6.7351   -1.4392   20.1568 N   0  0  0  0  0  0  0  0  0  0  0  0
    6.9423   -2.7572   19.8339 C   0  0  0  0  0  0  0  0  0  0  0  0
    6.0954   -3.5324   19.4369 O   0  0  0  0  0  0  0  0  0  0  0  0
    5.4610   -0.7494   19.9896 C   0  0  1  0  0  0  0  0  0  0  0  0
    5.5219    0.3365   18.9665 C   0  0  0  0  0  0  0  0  0  0  0  0
    4.5418    1.2914   18.9134 N   0  0  0  0  0  0  0  0  0  0  0  0
    4.9278    2.0053   17.9153 C   0  0  0  0  0  0  0  0  0  0  0  0
    6.0489    1.5944   17.3475 O   0  0  0  0  0  0  0  0  0  0  0  0
    6.4510    0.4595   18.0696 N   0  0  0  0  0  0  0  0  0  0  0  0
   10.8826   -2.2366   21.4759 H   0  0  0  0  0  0  0  0  0  0  0  0
    8.6030   -3.8731   21.8895 H   0  0  0  0  0  0  0  0  0  0  0  0
    9.4948    1.7704   22.0737 H   0  0  0  0  0  0  0  0  0  0  0  0
    7.3239    1.1859   21.0293 H   0  0  0  0  0  0  0  0  0  0  0  0
    6.2837   -4.4035   19.7658 H   0  0  0  0  0  0  0  0  0  0  0  0
    4.7021   -1.4828   19.6793 H   0  0  0  0  0  0  0  0  0  0  0  0
    5.1710   -0.3077   20.9544 H   0  0  0  0  0  0  0  0  0  0  0  0
    4.3807    2.8699   17.5695 H   0  0  0  0  0  0  0  0  0  0  0  0
  1  2  1  0
  2  3  2  0
  2  7  1  0
  3  4  1  0
  3 19  1  0
  4  5  1  0
  4  9  2  0
  5  6  1  0
  5 11  2  0
  6 20  1  0
  7  8  2  0
  7 21  1  0
  8  9  1  0
  8 22  1  0
  9 10  1  0
 10 11  1  0
 10 13  1  0
 11 12  1  0
 12 23  1  0
 13 14  1  0
 13 24  1  6
 13 25  1  0
 14 15  1  0
 14 18  2  0
 15 16  2  0
 16 17  1  0
 16 26  1  0
 17 18  1  0
M  END
$$$$
