LIG(A-305)
     RDKit          3D

 29 30  0  0  1  0  0  0  0  0999 V2000
    8.5250   -3.9444   20.9171 O   0  0  0  0  0  0  0  0  0  0  0  0
    5.9518    0.6633   18.4939 C   0  0  0  0  0  0  0  0  0  0  0  0
    5.8098   -0.2246   19.7049 C   0  0  1  0  0  0  0  0  0  0  0  0
    6.2360   -3.0576   19.3121 O   0  0  0  0  0  0  0  0  0  0  0  0
    7.0039   -0.9996   20.0190 N   0  0  0  0  0  0  0  0  0  0  0  0
    8.4348    0.7766   21.1039 C   0  0  0  0  0  0  0  0  0  0  0  0
    9.6377    1.0007   21.7599 C   0  0  0  0  0  0  0  0  0  0  0  0
    6.8908    0.6423   17.7409 O   0  0  0  0  0  0  0  0  0  0  0  0
    4.9448    1.4783   18.3688 O   0  0  0  0  0  0  0  0  0  0  0  0
    7.1189   -2.3406   19.7510 C   0  0  0  0  0  0  0  0  0  0  0  0
    8.1528   -0.5075   20.6500 C   0  0  0  0  0  0  0  0  0  0  0  0
    9.0589   -1.5414   20.8370 C   0  0  0  0  0  0  0  0  0  0  0  0
   10.2309   -1.3023   21.5300 C   0  0  0  0  0  0  0  0  0  0  0  0
    8.5339   -2.7605   20.1261 C   0  0  0  0  0  0  0  0  0  0  0  0
   10.5498   -0.0303   21.9860 C   0  0  0  0  0  0  0  0  0  0  0  0
   11.8768    0.2318   22.6670 C   0  0  1  0  0  0  0  0  0  0  0  0
   13.0448   -0.5112   22.0010 C   0  0  1  0  0  0  0  0  0  0  0  0
    7.6289   -4.2309   21.0490 H   0  0  0  0  0  0  0  0  0  0  0  0
    5.5717    0.4092   20.5718 H   0  0  0  0  0  0  0  0  0  0  0  0
    4.9812   -0.9251   19.5242 H   0  0  0  0  0  0  0  0  0  0  0  0
    5.7894   -2.6121   18.6017 H   0  0  0  0  0  0  0  0  0  0  0  0
    7.7326    1.5825   20.9494 H   0  0  0  0  0  0  0  0  0  0  0  0
    9.8730    1.9972   22.1034 H   0  0  0  0  0  0  0  0  0  0  0  0
   10.9106   -2.1197   21.7202 H   0  0  0  0  0  0  0  0  0  0  0  0
   12.0821    1.3119   22.6327 H   0  0  0  0  0  0  0  0  0  0  0  0
   11.8045   -0.0946   23.7150 H   0  0  0  0  0  0  0  0  0  0  0  0
   13.9781   -0.2832   22.5367 H   0  0  0  0  0  0  0  0  0  0  0  0
   12.8575   -1.5945   22.0357 H   0  0  0  0  0  0  0  0  0  0  0  0
   13.1351   -0.1880   20.9535 H   0  0  0  0  0  0  0  0  0  0  0  0
  1 14  1  0
  1 18  1  0
  2  3  1  0
  2  8  2  0
  2  9  1  0
  3  5  1  0
  3 19  1  1
  3 20  1  0
  4 10  1  0
  4 21  1  0
  5 10  1  0
  5 11  1  0
  6  7  2  0
  6 11  1  0
  6 22  1  0
  7 15  1  0
  7 23  1  0
 10 14  2  0
 11 12  2  0
 12 13  1  0
 12 14  1  0
 13 15  2  0
 13 24  1  0
 15 16  1  0
 16 17  1  0
 16 25  1  1
 16 26  1  0
 17 27  1  1
 17 28  1  0
 17 29  1  0
M  CHG  1   9  -1
M  END
$$$$
