LIG(A-307)
     RDKit          3D

 57 62  0  0  1  0  0  0  0  0999 V2000
    6.6684    4.2415   24.9448 O   0  0  0  0  0  0  0  0  0  0  0  0
    7.5144    3.5477   24.4035 C   0  0  0  0  0  0  0  0  0  0  0  0
    7.8590    3.6849   23.1284 N   0  0  0  0  0  0  0  0  0  0  0  0
    7.0846    4.5118   22.2207 C   0  0  1  0  0  0  0  0  0  0  0  0
    8.1798    2.4318   25.2172 C   0  0  2  0  0  0  0  0  0  0  0  0
    7.3472    1.8305   26.3184 C   0  0  1  0  0  0  0  0  0  0  0  0
    8.4731    2.7467   26.6602 C   0  0  2  0  0  0  0  0  0  0  0  0
    9.1288    1.5110   24.5299 N   0  0  0  0  0  0  0  0  0  0  0  0
   10.4067    1.9193   24.2866 C   0  0  0  0  0  0  0  0  0  0  0  0
   10.7705    3.0483   24.5526 O   0  0  0  0  0  0  0  0  0  0  0  0
   11.3097    0.9565   23.6363 C   0  0  0  0  0  0  0  0  0  0  0  0
   12.6817    1.2078   23.6420 C   0  0  0  0  0  0  0  0  0  0  0  0
   13.5527    0.3500   22.9936 C   0  0  0  0  0  0  0  0  0  0  0  0
   13.0487   -0.7700   22.3657 C   0  0  0  0  0  0  0  0  0  0  0  0
   14.1377   -1.8087   21.4903 Cl  0  0  0  0  0  0  0  0  0  0  0  0
   11.7008   -1.0693   22.3740 C   0  0  0  0  0  0  0  0  0  0  0  0
   10.8158   -0.1855   22.9873 C   0  0  0  0  0  0  0  0  0  0  0  0
    8.6550    0.1739   24.1699 C   0  0  1  0  0  0  0  0  0  0  0  0
    9.3048   -0.3438   22.8587 C   0  0  1  0  0  0  0  0  0  0  0  0
    8.7413    0.4512   21.6799 C   0  0  0  0  0  0  0  0  0  0  0  0
    9.1380    1.5323   21.2849 O   0  0  0  0  0  0  0  0  0  0  0  0
    8.8489   -1.7839   22.5146 C   0  0  1  0  0  0  0  0  0  0  0  0
    7.5217   -1.5620   21.8010 C   0  0  1  0  0  0  0  0  0  0  0  0
    7.7083   -0.2559   21.1471 N   0  0  0  0  0  0  0  0  0  0  0  0
    6.8669    0.1970   20.0873 C   0  0  0  0  0  0  0  0  0  0  0  0
    5.7249    0.9897   20.3877 C   0  0  0  0  0  0  0  0  0  0  0  0
    5.2811    1.2815   21.7068 C   0  0  0  0  0  0  0  0  0  0  0  0
    4.1870    2.0733   21.9222 C   0  0  0  0  0  0  0  0  0  0  0  0
    3.4887    2.6223   20.8514 C   0  0  0  0  0  0  0  0  0  0  0  0
    3.8724    2.3645   19.5653 C   0  0  0  0  0  0  0  0  0  0  0  0
    4.9895    1.5337   19.2969 C   0  0  0  0  0  0  0  0  0  0  0  0
    5.4262    1.2159   17.9818 C   0  0  0  0  0  0  0  0  0  0  0  0
    6.4843    0.4561   17.7075 N   0  0  0  0  0  0  0  0  0  0  0  0
    7.1806   -0.0288   18.7462 C   0  0  0  0  0  0  0  0  0  0  0  0
    8.6690    3.2086   22.7863 H   0  0  0  0  0  0  0  0  0  0  0  0
    7.5414    4.4861   21.2204 H   0  0  0  0  0  0  0  0  0  0  0  0
    6.0552    4.1284   22.1635 H   0  0  0  0  0  0  0  0  0  0  0  0
    7.0701    5.5477   22.5905 H   0  0  0  0  0  0  0  0  0  0  0  0
    6.3078    2.1600   26.4633 H   0  0  0  0  0  0  0  0  0  0  0  0
    7.4260    0.7564   26.5422 H   0  0  0  0  0  0  0  0  0  0  0  0
    8.2628    3.7509   27.0567 H   0  0  0  0  0  0  0  0  0  0  0  0
    9.3810    2.3473   27.1358 H   0  0  0  0  0  0  0  0  0  0  0  0
   13.0663    2.0767   24.1552 H   0  0  0  0  0  0  0  0  0  0  0  0
   14.6130    0.5547   22.9795 H   0  0  0  0  0  0  0  0  0  0  0  0
   11.3379   -1.9754   21.9117 H   0  0  0  0  0  0  0  0  0  0  0  0
    8.9014   -0.5211   24.9860 H   0  0  0  0  0  0  0  0  0  0  0  0
    7.5638    0.2090   24.0350 H   0  0  0  0  0  0  0  0  0  0  0  0
    9.5747   -2.2811   21.8542 H   0  0  0  0  0  0  0  0  0  0  0  0
    8.7121   -2.3837   23.4265 H   0  0  0  0  0  0  0  0  0  0  0  0
    7.3356   -2.3522   21.0588 H   0  0  0  0  0  0  0  0  0  0  0  0
    6.6884   -1.5291   22.5183 H   0  0  0  0  0  0  0  0  0  0  0  0
    5.8159    0.8719   22.5510 H   0  0  0  0  0  0  0  0  0  0  0  0
    3.8623    2.2742   22.9324 H   0  0  0  0  0  0  0  0  0  0  0  0
    2.6357    3.2578   21.0382 H   0  0  0  0  0  0  0  0  0  0  0  0
    3.3192    2.7978   18.7453 H   0  0  0  0  0  0  0  0  0  0  0  0
    4.8632    1.6168   17.1519 H   0  0  0  0  0  0  0  0  0  0  0  0
    8.0460   -0.6375   18.5294 H   0  0  0  0  0  0  0  0  0  0  0  0
  1  2  2  0
  2  3  1  0
  2  5  1  0
  3  4  1  0
  3 35  1  0
  4 36  1  6
  4 37  1  0
  4 38  1  0
  5  6  1  0
  5  7  1  0
  5  8  1  6
  6  7  1  0
  6 39  1  6
  6 40  1  0
  7 41  1  6
  7 42  1  0
  8  9  1  0
  8 18  1  0
  9 10  2  0
  9 11  1  0
 11 12  2  0
 11 17  1  0
 12 13  1  0
 12 43  1  0
 13 14  2  0
 13 44  1  0
 14 15  1  0
 14 16  1  0
 16 17  2  0
 16 45  1  0
 17 19  1  0
 18 19  1  0
 18 46  1  1
 18 47  1  0
 19 20  1  6
 19 22  1  0
 20 21  2  0
 20 24  1  0
 22 23  1  0
 22 48  1  6
 22 49  1  0
 23 24  1  0
 23 50  1  6
 23 51  1  0
 24 25  1  0
 25 26  2  0
 25 34  1  0
 26 27  1  0
 26 31  1  0
 27 28  2  0
 27 52  1  0
 28 29  1  0
 28 53  1  0
 29 30  2  0
 29 54  1  0
 30 31  1  0
 30 55  1  0
 31 32  2  0
 32 33  1  0
 32 56  1  0
 33 34  2  0
 34 57  1  0
M  END
$$$$
