LIG(A-306)
     RDKit          3D

 60 64  0  0  1  0  0  0  0  0999 V2000
    6.1819    1.0852   24.9561 O   0  0  0  0  0  0  0  0  0  0  0  0
    7.4170    1.7963   24.8363 S   0  0  2  0  0  0  0  0  0  0  0  0
    7.8600    2.6075   25.9260 O   0  0  0  0  0  0  0  0  0  0  0  0
    7.3560    2.8191   23.3785 C   0  0  1  0  0  0  0  0  0  0  0  0
    6.8015    4.2400   23.5163 C   0  0  2  0  0  0  0  0  0  0  0  0
    5.3053    4.2264   23.8465 C   0  0  1  0  0  0  0  0  0  0  0  0
    4.7351    5.6260   23.8386 C   0  0  1  0  0  0  0  0  0  0  0  0
    4.9844    6.2861   22.5880 O   0  0  0  0  0  0  0  0  0  0  0  0
    6.3935    6.4134   22.3561 C   0  0  1  0  0  0  0  0  0  0  0  0
    7.0559    5.0601   22.2519 C   0  0  1  0  0  0  0  0  0  0  0  0
    8.5794    0.6978   24.5473 N   0  0  0  0  0  0  0  0  0  0  0  0
    9.9526    0.9672   24.9889 C   0  0  1  0  0  0  0  0  0  0  0  0
    8.3015   -0.6967   24.1587 C   0  0  1  0  0  0  0  0  0  0  0  0
    9.0930   -0.9498   22.8740 C   0  0  2  0  0  0  0  0  0  0  0  0
   10.5607   -0.6151   23.0769 C   0  0  0  0  0  0  0  0  0  0  0  0
   10.9459    0.3317   24.0426 C   0  0  0  0  0  0  0  0  0  0  0  0
   12.2860    0.7052   24.1322 C   0  0  0  0  0  0  0  0  0  0  0  0
   13.2371    0.1625   23.2883 C   0  0  0  0  0  0  0  0  0  0  0  0
   11.5342   -1.1922   22.2581 C   0  0  0  0  0  0  0  0  0  0  0  0
   12.8518   -0.7930   22.3768 C   0  0  0  0  0  0  0  0  0  0  0  0
   14.0597   -1.5368   21.3645 Cl  0  0  0  0  0  0  0  0  0  0  0  0
    8.5135   -0.1296   21.7175 C   0  0  0  0  0  0  0  0  0  0  0  0
    9.0642    0.8905   21.2958 O   0  0  0  0  0  0  0  0  0  0  0  0
    7.3644   -0.6256   21.1888 N   0  0  0  0  0  0  0  0  0  0  0  0
    6.6469   -0.1348   20.0728 C   0  0  0  0  0  0  0  0  0  0  0  0
    5.4999    0.6972   20.2894 C   0  0  0  0  0  0  0  0  0  0  0  0
    4.9199    0.9244   21.5651 C   0  0  0  0  0  0  0  0  0  0  0  0
    3.8286    1.7350   21.7058 C   0  0  0  0  0  0  0  0  0  0  0  0
    3.2642    2.3620   20.6032 C   0  0  0  0  0  0  0  0  0  0  0  0
    3.7776    2.1656   19.3531 C   0  0  0  0  0  0  0  0  0  0  0  0
    4.8989    1.3199   19.1585 C   0  0  0  0  0  0  0  0  0  0  0  0
    5.4500    1.0454   17.8837 C   0  0  0  0  0  0  0  0  0  0  0  0
    6.4912    0.2500   17.6770 N   0  0  0  0  0  0  0  0  0  0  0  0
    7.0631   -0.3132   18.7522 C   0  0  0  0  0  0  0  0  0  0  0  0
    8.3841    2.9055   22.9971 H   0  0  0  0  0  0  0  0  0  0  0  0
    6.7330    2.2958   22.6383 H   0  0  0  0  0  0  0  0  0  0  0  0
    7.3274    4.7292   24.3494 H   0  0  0  0  0  0  0  0  0  0  0  0
    4.7772    3.6188   23.0969 H   0  0  0  0  0  0  0  0  0  0  0  0
    5.1613    3.7851   24.8438 H   0  0  0  0  0  0  0  0  0  0  0  0
    3.6490    5.5710   24.0039 H   0  0  0  0  0  0  0  0  0  0  0  0
    5.2003    6.2066   24.6489 H   0  0  0  0  0  0  0  0  0  0  0  0
    6.5541    6.9644   21.4177 H   0  0  0  0  0  0  0  0  0  0  0  0
    6.8453    6.9703   23.1902 H   0  0  0  0  0  0  0  0  0  0  0  0
    8.1396    5.1967   22.1211 H   0  0  0  0  0  0  0  0  0  0  0  0
    6.6467    4.5229   21.3836 H   0  0  0  0  0  0  0  0  0  0  0  0
   10.1189    2.0543   25.0122 H   0  0  0  0  0  0  0  0  0  0  0  0
   10.0968    0.5524   25.9975 H   0  0  0  0  0  0  0  0  0  0  0  0
    8.6302   -1.3856   24.9508 H   0  0  0  0  0  0  0  0  0  0  0  0
    7.2254   -0.8341   23.9766 H   0  0  0  0  0  0  0  0  0  0  0  0
    9.0094   -2.0166   22.6189 H   0  0  0  0  0  0  0  0  0  0  0  0
   12.5863    1.4308   24.8735 H   0  0  0  0  0  0  0  0  0  0  0  0
   14.2668    0.4837   23.3438 H   0  0  0  0  0  0  0  0  0  0  0  0
   11.2585   -1.9465   21.5360 H   0  0  0  0  0  0  0  0  0  0  0  0
    6.9814   -1.4310   21.6411 H   0  0  0  0  0  0  0  0  0  0  0  0
    5.3468    0.4501   22.4364 H   0  0  0  0  0  0  0  0  0  0  0  0
    3.4007    1.8896   22.6853 H   0  0  0  0  0  0  0  0  0  0  0  0
    2.4112    3.0110   20.7353 H   0  0  0  0  0  0  0  0  0  0  0  0
    3.3255    2.6586   18.5052 H   0  0  0  0  0  0  0  0  0  0  0  0
    4.9934    1.5137   17.0242 H   0  0  0  0  0  0  0  0  0  0  0  0
    7.9139   -0.9564   18.5823 H   0  0  0  0  0  0  0  0  0  0  0  0
  1  2  2  0
  2  3  2  0
  2  4  1  0
  2 11  1  6
  4  5  1  0
  4 35  1  6
  4 36  1  0
  5  6  1  0
  5 10  1  0
  5 37  1  1
  6  7  1  0
  6 38  1  6
  6 39  1  0
  7  8  1  0
  7 40  1  1
  7 41  1  0
  8  9  1  0
  9 10  1  0
  9 42  1  6
  9 43  1  0
 10 44  1  6
 10 45  1  0
 11 12  1  0
 11 13  1  0
 12 16  1  0
 12 46  1  1
 12 47  1  0
 13 14  1  0
 13 48  1  1
 13 49  1  0
 14 15  1  0
 14 22  1  0
 14 50  1  6
 15 16  2  0
 15 19  1  0
 16 17  1  0
 17 18  2  0
 17 51  1  0
 18 20  1  0
 18 52  1  0
 19 20  2  0
 19 53  1  0
 20 21  1  0
 22 23  2  0
 22 24  1  0
 24 25  1  0
 24 54  1  0
 25 26  2  0
 25 34  1  0
 26 27  1  0
 26 31  1  0
 27 28  2  0
 27 55  1  0
 28 29  1  0
 28 56  1  0
 29 30  2  0
 29 57  1  0
 30 31  1  0
 30 58  1  0
 31 32  2  0
 32 33  1  0
 32 59  1  0
 33 34  2  0
 34 60  1  0
M  END
$$$$
