LIG(A-306)
     RDKit          3D

 47 50  0  0  1  0  0  0  0  0999 V2000
  -14.2606   -2.1222  -20.7854 Cl  0  0  0  0  0  0  0  0  0  0  0  0
  -13.4219   -1.1501  -21.9633 C   0  0  0  0  0  0  0  0  0  0  0  0
  -14.1501   -0.3167  -22.7885 C   0  0  0  0  0  0  0  0  0  0  0  0
  -13.4814    0.5038  -23.6796 C   0  0  0  0  0  0  0  0  0  0  0  0
  -12.0955    0.4807  -23.7226 C   0  0  0  0  0  0  0  0  0  0  0  0
  -11.5058    1.3135  -24.6406 O   0  0  0  0  0  0  0  0  0  0  0  0
  -10.2396    0.8292  -25.1389 C   0  0  1  0  0  0  0  0  0  0  0  0
   -9.2536    0.6252  -24.0159 C   0  0  1  0  0  0  0  0  0  0  0  0
  -12.0421   -1.1922  -22.0092 C   0  0  0  0  0  0  0  0  0  0  0  0
  -11.3523   -0.3568  -22.8854 C   0  0  0  0  0  0  0  0  0  0  0  0
   -9.8353   -0.3311  -22.9513 C   0  0  2  0  0  0  0  0  0  0  0  0
   -9.2667    0.0050  -21.5729 C   0  0  0  0  0  0  0  0  0  0  0  0
   -9.6116    0.9968  -20.9661 O   0  0  0  0  0  0  0  0  0  0  0  0
   -8.2869   -0.8451  -21.0201 N   0  0  0  0  0  0  0  0  0  0  0  0
   -8.1975   -2.2274  -21.2968 C   0  0  0  0  0  0  0  0  0  0  0  0
   -9.1066   -2.8053  -21.8836 O   0  0  0  0  0  0  0  0  0  0  0  0
   -7.0344   -2.9991  -20.7030 C   0  0  1  0  0  0  0  0  0  0  0  0
   -7.3992   -4.4274  -20.3523 C   0  0  1  0  0  0  0  0  0  0  0  0
   -7.4363   -0.2855  -19.9903 C   0  0  0  0  0  0  0  0  0  0  0  0
   -7.7487   -0.4063  -18.6393 C   0  0  0  0  0  0  0  0  0  0  0  0
   -7.0152    0.1157  -17.6465 N   0  0  0  0  0  0  0  0  0  0  0  0
   -5.9301    0.8043  -17.9806 C   0  0  0  0  0  0  0  0  0  0  0  0
   -5.5033    1.0298  -19.3155 C   0  0  0  0  0  0  0  0  0  0  0  0
   -6.2770    0.4591  -20.3654 C   0  0  0  0  0  0  0  0  0  0  0  0
   -4.3610    1.8023  -19.6424 C   0  0  0  0  0  0  0  0  0  0  0  0
   -3.9993    1.9928  -20.9472 C   0  0  0  0  0  0  0  0  0  0  0  0
   -4.7460    1.4350  -21.9761 C   0  0  0  0  0  0  0  0  0  0  0  0
   -5.8563    0.6846  -21.7042 C   0  0  0  0  0  0  0  0  0  0  0  0
  -15.2289   -0.3053  -22.7391 H   0  0  0  0  0  0  0  0  0  0  0  0
  -14.0350    1.1576  -24.3372 H   0  0  0  0  0  0  0  0  0  0  0  0
  -10.3997   -0.1293  -25.6544 H   0  0  0  0  0  0  0  0  0  0  0  0
   -9.8289    1.5628  -25.8482 H   0  0  0  0  0  0  0  0  0  0  0  0
   -8.3268    0.1938  -24.4219 H   0  0  0  0  0  0  0  0  0  0  0  0
   -9.0320    1.5958  -23.5480 H   0  0  0  0  0  0  0  0  0  0  0  0
  -11.4993   -1.8707  -21.3678 H   0  0  0  0  0  0  0  0  0  0  0  0
   -9.4981   -1.3464  -23.2072 H   0  0  0  0  0  0  0  0  0  0  0  0
   -6.2126   -3.0150  -21.4340 H   0  0  0  0  0  0  0  0  0  0  0  0
   -6.7018   -2.4860  -19.7885 H   0  0  0  0  0  0  0  0  0  0  0  0
   -6.5216   -4.9369  -19.9275 H   0  0  0  0  0  0  0  0  0  0  0  0
   -8.2153   -4.4267  -19.6147 H   0  0  0  0  0  0  0  0  0  0  0  0
   -7.7261   -4.9557  -21.2601 H   0  0  0  0  0  0  0  0  0  0  0  0
   -8.6396   -0.9561  -18.3739 H   0  0  0  0  0  0  0  0  0  0  0  0
   -5.3322    1.2207  -17.1834 H   0  0  0  0  0  0  0  0  0  0  0  0
   -3.7706    2.2446  -18.8536 H   0  0  0  0  0  0  0  0  0  0  0  0
   -3.1249    2.5826  -21.1795 H   0  0  0  0  0  0  0  0  0  0  0  0
   -4.4470    1.5952  -23.0015 H   0  0  0  0  0  0  0  0  0  0  0  0
   -6.4220    0.2569  -22.5188 H   0  0  0  0  0  0  0  0  0  0  0  0
  1  2  1  0
  2  3  2  0
  2  9  1  0
  3  4  1  0
  3 29  1  0
  4  5  2  0
  4 30  1  0
  5  6  1  0
  5 10  1  0
  6  7  1  0
  7  8  1  0
  7 31  1  6
  7 32  1  0
  8 11  1  0
  8 33  1  6
  8 34  1  0
  9 10  2  0
  9 35  1  0
 10 11  1  0
 11 12  1  0
 11 36  1  6
 12 13  2  0
 12 14  1  0
 14 15  1  0
 14 19  1  0
 15 16  2  0
 15 17  1  0
 17 18  1  0
 17 37  1  6
 17 38  1  0
 18 39  1  1
 18 40  1  0
 18 41  1  0
 19 20  2  0
 19 24  1  0
 20 21  1  0
 20 42  1  0
 21 22  2  0
 22 23  1  0
 22 43  1  0
 23 24  2  0
 23 25  1  0
 24 28  1  0
 25 26  2  0
 25 44  1  0
 26 27  1  0
 26 45  1  0
 27 28  2  0
 27 46  1  0
 28 47  1  0
M  END
$$$$
