LIG(A-306)
     RDKit          3D

 63 67  0  0  1  0  0  0  0  0999 V2000
    8.8272    0.9996   21.3333 O   0  0  0  0  0  0  0  0  0  0  0  0
    8.3295   -0.0995   21.5843 C   0  0  0  0  0  0  0  0  0  0  0  0
    7.2375   -0.5977   20.9624 N   0  0  0  0  0  0  0  0  0  0  0  0
    6.5052   -0.0169   19.9095 C   0  0  0  0  0  0  0  0  0  0  0  0
    5.4041    0.8389   20.2307 C   0  0  0  0  0  0  0  0  0  0  0  0
    4.9352    1.0617   21.5507 C   0  0  0  0  0  0  0  0  0  0  0  0
    3.8870    1.9045   21.7929 C   0  0  0  0  0  0  0  0  0  0  0  0
    3.2537    2.5614   20.7490 C   0  0  0  0  0  0  0  0  0  0  0  0
    3.6706    2.3835   19.4599 C   0  0  0  0  0  0  0  0  0  0  0  0
    4.7528    1.5188   19.1648 C   0  0  0  0  0  0  0  0  0  0  0  0
    5.2317    1.2949   17.8507 C   0  0  0  0  0  0  0  0  0  0  0  0
    6.2458    0.4912   17.5526 N   0  0  0  0  0  0  0  0  0  0  0  0
    6.8531   -0.1427   18.5645 C   0  0  0  0  0  0  0  0  0  0  0  0
    8.9598   -1.0684   22.6222 C   0  0  1  0  0  0  0  0  0  0  0  0
   10.3867   -0.6621   22.9600 C   0  0  0  0  0  0  0  0  0  0  0  0
   10.6596    0.3640   23.8580 C   0  0  0  0  0  0  0  0  0  0  0  0
   11.9686    0.6893   24.1859 C   0  0  0  0  0  0  0  0  0  0  0  0
   13.0237   -0.0055   23.6158 C   0  0  0  0  0  0  0  0  0  0  0  0
   11.4458   -1.3598   22.3919 C   0  0  0  0  0  0  0  0  0  0  0  0
   12.7438   -1.0195   22.7208 C   0  0  0  0  0  0  0  0  0  0  0  0
   14.0559   -1.8712   21.9586 Cl  0  0  0  0  0  0  0  0  0  0  0  0
    8.1430   -1.3076   23.8053 N   0  0  0  0  0  0  0  0  0  0  0  0
    7.3719   -0.4048   24.4274 C   0  0  0  0  0  0  0  0  0  0  0  0
    7.3485    0.7942   24.1484 O   0  0  0  0  0  0  0  0  0  0  0  0
    6.5091   -0.9501   25.5575 C   0  0  1  0  0  0  0  0  0  0  0  0
    6.5084   -2.3951   25.5584 O   0  0  0  0  0  0  0  0  0  0  0  0
    7.3307   -2.9499   26.6193 C   0  0  2  0  0  0  0  0  0  0  0  0
    7.9915   -1.7308   27.2653 C   0  0  1  0  0  0  0  0  0  0  0  0
    7.0372   -0.5730   26.9274 C   0  0  1  0  0  0  0  0  0  0  0  0
    8.3509   -3.9536   26.0592 C   0  0  0  0  0  0  0  0  0  0  0  0
    8.7487   -3.8545   24.9101 O   0  0  0  0  0  0  0  0  0  0  0  0
    8.8162   -4.9096   26.8831 N   0  0  0  0  0  0  0  0  0  0  0  0
    8.2844   -5.2737   28.2031 C   0  0  1  0  0  0  0  0  0  0  0  0
    9.3807   -6.1245   28.8030 C   0  0  1  0  0  0  0  0  0  0  0  0
   10.0407   -6.7693   27.6119 C   0  0  1  0  0  0  0  0  0  0  0  0
    9.9793   -5.7283   26.5179 C   0  0  1  0  0  0  0  0  0  0  0  0
    6.9108   -1.4846   21.2891 H   0  0  0  0  0  0  0  0  0  0  0  0
    5.4139    0.5576   22.3772 H   0  0  0  0  0  0  0  0  0  0  0  0
    3.5489    2.0602   22.8067 H   0  0  0  0  0  0  0  0  0  0  0  0
    2.4232    3.2198   20.9566 H   0  0  0  0  0  0  0  0  0  0  0  0
    3.1703    2.9071   18.6587 H   0  0  0  0  0  0  0  0  0  0  0  0
    4.7405    1.8110   17.0391 H   0  0  0  0  0  0  0  0  0  0  0  0
    7.6739   -0.8008   18.3205 H   0  0  0  0  0  0  0  0  0  0  0  0
    9.0425   -2.0348   22.1034 H   0  0  0  0  0  0  0  0  0  0  0  0
    9.8444    0.9136   24.3052 H   0  0  0  0  0  0  0  0  0  0  0  0
   12.1655    1.4863   24.8876 H   0  0  0  0  0  0  0  0  0  0  0  0
   14.0447    0.2413   23.8664 H   0  0  0  0  0  0  0  0  0  0  0  0
   11.2551   -2.1640   21.6968 H   0  0  0  0  0  0  0  0  0  0  0  0
    8.1594   -2.2311   24.1885 H   0  0  0  0  0  0  0  0  0  0  0  0
    5.4834   -0.5686   25.4458 H   0  0  0  0  0  0  0  0  0  0  0  0
    6.6998   -3.4563   27.3646 H   0  0  0  0  0  0  0  0  0  0  0  0
    8.0773   -1.8627   28.3540 H   0  0  0  0  0  0  0  0  0  0  0  0
    8.9893   -1.5534   26.8376 H   0  0  0  0  0  0  0  0  0  0  0  0
    7.5761    0.3853   26.8927 H   0  0  0  0  0  0  0  0  0  0  0  0
    6.2203   -0.5079   27.6611 H   0  0  0  0  0  0  0  0  0  0  0  0
    8.1030   -4.3776   28.8148 H   0  0  0  0  0  0  0  0  0  0  0  0
    7.3506   -5.8468   28.1063 H   0  0  0  0  0  0  0  0  0  0  0  0
   10.0985   -5.5022   29.3574 H   0  0  0  0  0  0  0  0  0  0  0  0
    8.9597   -6.8862   29.4757 H   0  0  0  0  0  0  0  0  0  0  0  0
   11.0851   -7.0274   27.8415 H   0  0  0  0  0  0  0  0  0  0  0  0
    9.4960   -7.6769   27.3126 H   0  0  0  0  0  0  0  0  0  0  0  0
    9.8341   -6.2001   25.5349 H   0  0  0  0  0  0  0  0  0  0  0  0
   10.8968   -5.1216   26.5015 H   0  0  0  0  0  0  0  0  0  0  0  0
  1  2  2  0
  2  3  1  0
  2 14  1  0
  3  4  1  0
  3 37  1  0
  4  5  2  0
  4 13  1  0
  5  6  1  0
  5 10  1  0
  6  7  2  0
  6 38  1  0
  7  8  1  0
  7 39  1  0
  8  9  2  0
  8 40  1  0
  9 10  1  0
  9 41  1  0
 10 11  2  0
 11 12  1  0
 11 42  1  0
 12 13  2  0
 13 43  1  0
 14 15  1  0
 14 22  1  0
 14 44  1  6
 15 16  2  0
 15 19  1  0
 16 17  1  0
 16 45  1  0
 17 18  2  0
 17 46  1  0
 18 20  1  0
 18 47  1  0
 19 20  2  0
 19 48  1  0
 20 21  1  0
 22 23  1  0
 22 49  1  0
 23 24  2  0
 23 25  1  0
 25 26  1  0
 25 29  1  0
 25 50  1  6
 26 27  1  0
 27 28  1  0
 27 30  1  0
 27 51  1  1
 28 29  1  0
 28 52  1  1
 28 53  1  0
 29 54  1  6
 29 55  1  0
 30 31  2  0
 30 32  1  0
 32 33  1  0
 32 36  1  0
 33 34  1  0
 33 56  1  1
 33 57  1  0
 34 35  1  0
 34 58  1  1
 34 59  1  0
 35 36  1  0
 35 60  1  1
 35 61  1  0
 36 62  1  6
 36 63  1  0
M  END
$$$$
