LIG(A-306)
     RDKit          3D

 50 53  0  0  1  0  0  0  0  0999 V2000
   14.0566   -1.6299   21.5141 Cl  0  0  0  0  0  0  0  0  0  0  0  0
   12.8285   -0.8342   22.4539 C   0  0  0  0  0  0  0  0  0  0  0  0
   11.5053   -1.1763   22.2582 C   0  0  0  0  0  0  0  0  0  0  0  0
   13.1969    0.1441   23.3502 C   0  0  0  0  0  0  0  0  0  0  0  0
   12.2142    0.7904   24.0757 C   0  0  0  0  0  0  0  0  0  0  0  0
   10.8670    0.4624   23.9160 C   0  0  0  0  0  0  0  0  0  0  0  0
    9.8463    1.0935   24.8346 C   0  0  1  0  0  0  0  0  0  0  0  0
    8.4779    0.8899   24.3502 N   0  0  0  0  0  0  0  0  0  0  0  0
    7.4519    1.7162   24.6948 C   0  0  0  0  0  0  0  0  0  0  0  0
    6.3967    1.2959   25.1366 O   0  0  0  0  0  0  0  0  0  0  0  0
    7.6778    3.0440   24.5284 N   0  0  0  0  0  0  0  0  0  0  0  0
    7.7603    3.9598   25.6689 C   0  0  1  0  0  0  0  0  0  0  0  0
    7.8547    3.6479   23.2114 C   0  0  1  0  0  0  0  0  0  0  0  0
   10.5076   -0.5171   22.9767 C   0  0  0  0  0  0  0  0  0  0  0  0
    9.0444   -0.8457   22.7418 C   0  0  1  0  0  0  0  0  0  0  0  0
    8.2193   -0.5045   23.9830 C   0  0  1  0  0  0  0  0  0  0  0  0
    8.5128   -0.0277   21.5617 C   0  0  0  0  0  0  0  0  0  0  0  0
    9.0394    1.0268   21.2066 O   0  0  0  0  0  0  0  0  0  0  0  0
    7.3932   -0.5312   20.9828 N   0  0  0  0  0  0  0  0  0  0  0  0
    6.6431    0.0269   19.9238 C   0  0  0  0  0  0  0  0  0  0  0  0
    5.5420    0.8878   20.2353 C   0  0  0  0  0  0  0  0  0  0  0  0
    5.1000    1.1583   21.5559 C   0  0  0  0  0  0  0  0  0  0  0  0
    4.0590    2.0140   21.7884 C   0  0  0  0  0  0  0  0  0  0  0  0
    3.4058    2.6413   20.7301 C   0  0  0  0  0  0  0  0  0  0  0  0
    3.7937    2.4118   19.4393 C   0  0  0  0  0  0  0  0  0  0  0  0
    4.8678    1.5280   19.1550 C   0  0  0  0  0  0  0  0  0  0  0  0
    5.3188    1.2556   17.8424 C   0  0  0  0  0  0  0  0  0  0  0  0
    6.3298    0.4465   17.5537 N   0  0  0  0  0  0  0  0  0  0  0  0
    6.9659   -0.1410   18.5767 C   0  0  0  0  0  0  0  0  0  0  0  0
   11.2438   -1.9506   21.5522 H   0  0  0  0  0  0  0  0  0  0  0  0
   14.2371    0.4021   23.4840 H   0  0  0  0  0  0  0  0  0  0  0  0
   12.4933    1.5620   24.7780 H   0  0  0  0  0  0  0  0  0  0  0  0
    9.9407    0.6440   25.8340 H   0  0  0  0  0  0  0  0  0  0  0  0
   10.0443    2.1737   24.8982 H   0  0  0  0  0  0  0  0  0  0  0  0
    7.9478    4.9814   25.3067 H   0  0  0  0  0  0  0  0  0  0  0  0
    6.8125    3.9369   26.2268 H   0  0  0  0  0  0  0  0  0  0  0  0
    8.5826    3.6487   26.3301 H   0  0  0  0  0  0  0  0  0  0  0  0
    8.0240    4.7291   23.3231 H   0  0  0  0  0  0  0  0  0  0  0  0
    8.7217    3.1909   22.7121 H   0  0  0  0  0  0  0  0  0  0  0  0
    6.9519    3.4787   22.6063 H   0  0  0  0  0  0  0  0  0  0  0  0
    8.9401   -1.9176   22.5181 H   0  0  0  0  0  0  0  0  0  0  0  0
    8.5087   -1.1656   24.8131 H   0  0  0  0  0  0  0  0  0  0  0  0
    7.1494   -0.6374   23.7642 H   0  0  0  0  0  0  0  0  0  0  0  0
    7.0598   -1.3999   21.3493 H   0  0  0  0  0  0  0  0  0  0  0  0
    5.5930    0.6813   22.3901 H   0  0  0  0  0  0  0  0  0  0  0  0
    3.7401    2.2052   22.8023 H   0  0  0  0  0  0  0  0  0  0  0  0
    2.5857    3.3148   20.9309 H   0  0  0  0  0  0  0  0  0  0  0  0
    3.2788    2.9070   18.6293 H   0  0  0  0  0  0  0  0  0  0  0  0
    4.8072    1.7372   17.0223 H   0  0  0  0  0  0  0  0  0  0  0  0
    7.7922   -0.7949   18.3402 H   0  0  0  0  0  0  0  0  0  0  0  0
  1  2  1  0
  2  3  2  0
  2  4  1  0
  3 14  1  0
  3 30  1  0
  4  5  2  0
  4 31  1  0
  5  6  1  0
  5 32  1  0
  6  7  1  0
  6 14  2  0
  7  8  1  0
  7 33  1  1
  7 34  1  0
  8  9  1  0
  8 16  1  0
  9 10  2  0
  9 11  1  0
 11 12  1  0
 11 13  1  0
 12 35  1  6
 12 36  1  0
 12 37  1  0
 13 38  1  1
 13 39  1  0
 13 40  1  0
 14 15  1  0
 15 16  1  0
 15 17  1  0
 15 41  1  6
 16 42  1  1
 16 43  1  0
 17 18  2  0
 17 19  1  0
 19 20  1  0
 19 44  1  0
 20 21  2  0
 20 29  1  0
 21 22  1  0
 21 26  1  0
 22 23  2  0
 22 45  1  0
 23 24  1  0
 23 46  1  0
 24 25  2  0
 24 47  1  0
 25 26  1  0
 25 48  1  0
 26 27  2  0
 27 28  1  0
 27 49  1  0
 28 29  2  0
 29 50  1  0
M  END
$$$$
