LIG(A-306)
     RDKit          3D

 37 39  0  0  0  0  0  0  0  0999 V2000
    9.0187    0.7260   21.0177 O   0  0  0  0  0  0  0  0  0  0  0  0
    8.3701   -0.2131   21.4751 C   0  0  0  0  0  0  0  0  0  0  0  0
    8.8366   -0.9918   22.6918 C   0  0  1  0  0  0  0  0  0  0  0  0
   10.2550   -0.6688   23.1104 C   0  0  0  0  0  0  0  0  0  0  0  0
   10.5142    0.1009   24.2384 C   0  0  0  0  0  0  0  0  0  0  0  0
   11.8105    0.4717   24.5563 C   0  0  0  0  0  0  0  0  0  0  0  0
   12.8614    0.0725   23.7453 C   0  0  0  0  0  0  0  0  0  0  0  0
   11.3269   -1.0902   22.3320 C   0  0  0  0  0  0  0  0  0  0  0  0
   12.6347   -0.7304   22.6303 C   0  0  0  0  0  0  0  0  0  0  0  0
   13.7825   -1.2333   21.7893 C   0  0  1  0  0  0  0  0  0  0  0  0
    7.1954   -0.6321   20.9526 N   0  0  0  0  0  0  0  0  0  0  0  0
    6.4754   -0.0725   19.8703 C   0  0  0  0  0  0  0  0  0  0  0  0
    5.3766    0.7988   20.1561 C   0  0  0  0  0  0  0  0  0  0  0  0
    4.8882    1.0530   21.4656 C   0  0  0  0  0  0  0  0  0  0  0  0
    3.8393    1.9073   21.6690 C   0  0  0  0  0  0  0  0  0  0  0  0
    3.2278    2.5473   20.5987 C   0  0  0  0  0  0  0  0  0  0  0  0
    3.6573    2.3324   19.3221 C   0  0  0  0  0  0  0  0  0  0  0  0
    4.7375    1.4529   19.0614 C   0  0  0  0  0  0  0  0  0  0  0  0
    5.2177    1.1785   17.7575 C   0  0  0  0  0  0  0  0  0  0  0  0
    6.2261    0.3587   17.4911 N   0  0  0  0  0  0  0  0  0  0  0  0
    6.8230   -0.2458   18.5283 C   0  0  0  0  0  0  0  0  0  0  0  0
    8.1648   -0.7602   23.5315 H   0  0  0  0  0  0  0  0  0  0  0  0
    8.7780   -2.0657   22.4609 H   0  0  0  0  0  0  0  0  0  0  0  0
    9.6977    0.4127   24.8727 H   0  0  0  0  0  0  0  0  0  0  0  0
   12.0020    1.0708   25.4343 H   0  0  0  0  0  0  0  0  0  0  0  0
   13.8673    0.3876   23.9807 H   0  0  0  0  0  0  0  0  0  0  0  0
   11.1375   -1.7147   21.4715 H   0  0  0  0  0  0  0  0  0  0  0  0
   14.4538   -1.8434   22.4114 H   0  0  0  0  0  0  0  0  0  0  0  0
   13.3911   -1.8453   20.9634 H   0  0  0  0  0  0  0  0  0  0  0  0
   14.3392   -0.3775   21.3797 H   0  0  0  0  0  0  0  0  0  0  0  0
    6.7852   -1.4358   21.3838 H   0  0  0  0  0  0  0  0  0  0  0  0
    5.3508    0.5657   22.3112 H   0  0  0  0  0  0  0  0  0  0  0  0
    3.4828    2.0860   22.6727 H   0  0  0  0  0  0  0  0  0  0  0  0
    2.4040    3.2218   20.7791 H   0  0  0  0  0  0  0  0  0  0  0  0
    3.1693    2.8376   18.5017 H   0  0  0  0  0  0  0  0  0  0  0  0
    4.7317    1.6683   16.9266 H   0  0  0  0  0  0  0  0  0  0  0  0
    7.6374   -0.9204   18.3090 H   0  0  0  0  0  0  0  0  0  0  0  0
  1  2  2  0
  2  3  1  0
  2 11  1  0
  3  4  1  0
  3 22  1  1
  3 23  1  0
  4  5  2  0
  4  8  1  0
  5  6  1  0
  5 24  1  0
  6  7  2  0
  6 25  1  0
  7  9  1  0
  7 26  1  0
  8  9  2  0
  8 27  1  0
  9 10  1  0
 10 28  1  1
 10 29  1  0
 10 30  1  0
 11 12  1  0
 11 31  1  0
 12 13  2  0
 12 21  1  0
 13 14  1  0
 13 18  1  0
 14 15  2  0
 14 32  1  0
 15 16  1  0
 15 33  1  0
 16 17  2  0
 16 34  1  0
 17 18  1  0
 17 35  1  0
 18 19  2  0
 19 20  1  0
 19 36  1  0
 20 21  2  0
 21 37  1  0
M  END
$$$$
