LIG(A-305)
     RDKit          3D

 43 45  0  0  0  0  0  0  0  0999 V2000
    1.6541    3.0994   21.4075 F   0  0  0  0  0  0  0  0  0  0  0  0
    2.6460    2.2304   21.0525 C   0  0  0  0  0  0  0  0  0  0  0  0
    3.1740    2.3383   19.7924 C   0  0  0  0  0  0  0  0  0  0  0  0
    3.0840    1.3234   21.9805 C   0  0  0  0  0  0  0  0  0  0  0  0
    4.1060    0.4623   21.6225 C   0  0  0  0  0  0  0  0  0  0  0  0
    4.6739    0.5182   20.3484 C   0  0  0  0  0  0  0  0  0  0  0  0
    4.2149    1.4882   19.4354 C   0  0  0  0  0  0  0  0  0  0  0  0
    4.8478    1.6191   18.2034 N   0  0  0  0  0  0  0  0  0  0  0  0
    5.9258    0.8740   17.8023 C   0  0  0  0  0  0  0  0  0  0  0  0
    6.5287    1.1639   16.7643 O   0  0  0  0  0  0  0  0  0  0  0  0
    6.3418   -0.1560   18.7024 C   0  0  0  0  0  0  0  0  0  0  0  0
    5.7548   -0.3589   19.9124 C   0  0  0  0  0  0  0  0  0  0  0  0
    6.1328   -1.5618   20.7155 C   0  0  0  0  0  0  0  0  0  0  0  0
    5.3748   -2.5278   20.8136 O   0  0  0  0  0  0  0  0  0  0  0  0
    7.2979   -1.5069   21.3604 N   0  0  0  0  0  0  0  0  0  0  0  0
    7.6519   -2.4708   22.3944 C   0  0  1  0  0  0  0  0  0  0  0  0
    9.1259   -2.5029   22.6673 C   0  0  1  0  0  0  0  0  0  0  0  0
    9.5520   -1.1529   22.9172 O   0  0  0  0  0  0  0  0  0  0  0  0
   10.8900   -0.8520   22.8481 C   0  0  0  0  0  0  0  0  0  0  0  0
   11.2211    0.4700   23.2011 C   0  0  0  0  0  0  0  0  0  0  0  0
   10.1621    1.2511   23.5791 O   0  0  0  0  0  0  0  0  0  0  0  0
   10.4172    2.6211   23.8840 C   0  0  1  0  0  0  0  0  0  0  0  0
   11.8799   -1.7161   22.4021 C   0  0  0  0  0  0  0  0  0  0  0  0
   13.1849   -1.2611   22.2850 C   0  0  0  0  0  0  0  0  0  0  0  0
   13.5110    0.0349   22.6349 C   0  0  0  0  0  0  0  0  0  0  0  0
   12.5371    0.9059   23.0990 C   0  0  0  0  0  0  0  0  0  0  0  0
    2.7906    3.0665   19.0931 H   0  0  0  0  0  0  0  0  0  0  0  0
    2.6434    1.2815   22.9656 H   0  0  0  0  0  0  0  0  0  0  0  0
    4.4687   -0.2617   22.3371 H   0  0  0  0  0  0  0  0  0  0  0  0
    4.4902    2.3023   17.5599 H   0  0  0  0  0  0  0  0  0  0  0  0
    7.1571   -0.8005   18.4089 H   0  0  0  0  0  0  0  0  0  0  0  0
    7.9478   -0.7833   21.1280 H   0  0  0  0  0  0  0  0  0  0  0  0
    7.1267   -2.2015   23.3227 H   0  0  0  0  0  0  0  0  0  0  0  0
    7.3313   -3.4714   22.0689 H   0  0  0  0  0  0  0  0  0  0  0  0
    9.3306   -3.1298   23.5478 H   0  0  0  0  0  0  0  0  0  0  0  0
    9.6598   -2.9093   21.7957 H   0  0  0  0  0  0  0  0  0  0  0  0
    9.4767    3.1152   24.1690 H   0  0  0  0  0  0  0  0  0  0  0  0
   11.1317    2.6841   24.7180 H   0  0  0  0  0  0  0  0  0  0  0  0
   10.8404    3.1206   23.0000 H   0  0  0  0  0  0  0  0  0  0  0  0
   11.6356   -2.7369   22.1477 H   0  0  0  0  0  0  0  0  0  0  0  0
   13.9527   -1.9257   21.9172 H   0  0  0  0  0  0  0  0  0  0  0  0
   14.5331    0.3724   22.5464 H   0  0  0  0  0  0  0  0  0  0  0  0
   12.7990    1.9155   23.3790 H   0  0  0  0  0  0  0  0  0  0  0  0
  1  2  1  0
  2  3  2  0
  2  4  1  0
  3  7  1  0
  3 27  1  0
  4  5  2  0
  4 28  1  0
  5  6  1  0
  5 29  1  0
  6  7  2  0
  6 12  1  0
  7  8  1  0
  8  9  1  0
  8 30  1  0
  9 10  2  0
  9 11  1  0
 11 12  2  0
 11 31  1  0
 12 13  1  0
 13 14  2  0
 13 15  1  0
 15 16  1  0
 15 32  1  0
 16 17  1  0
 16 33  1  1
 16 34  1  0
 17 18  1  0
 17 35  1  1
 17 36  1  0
 18 19  1  0
 19 20  2  0
 19 23  1  0
 20 21  1  0
 20 26  1  0
 21 22  1  0
 22 37  1  1
 22 38  1  0
 22 39  1  0
 23 24  2  0
 23 40  1  0
 24 25  1  0
 24 41  1  0
 25 26  2  0
 25 42  1  0
 26 43  1  0
M  END
$$$$
