LIG(A-306)
     RDKit          3D

 43 46  0  0  1  0  0  0  0  0999 V2000
   -4.2780    2.0133  -23.1079 F   0  0  0  0  0  0  0  0  0  0  0  0
   -4.6955    1.7175  -21.8507 C   0  0  0  0  0  0  0  0  0  0  0  0
   -3.9473    2.1850  -20.7974 C   0  0  0  0  0  0  0  0  0  0  0  0
   -4.3261    1.8719  -19.5273 C   0  0  0  0  0  0  0  0  0  0  0  0
   -5.8099    0.9552  -21.7033 C   0  0  0  0  0  0  0  0  0  0  0  0
   -6.2319    0.6022  -20.3961 C   0  0  0  0  0  0  0  0  0  0  0  0
   -5.4744    1.0780  -19.2880 C   0  0  0  0  0  0  0  0  0  0  0  0
   -5.9211    0.7419  -17.9878 C   0  0  0  0  0  0  0  0  0  0  0  0
   -7.0039    0.0206  -17.7345 N   0  0  0  0  0  0  0  0  0  0  0  0
   -7.7047   -0.4300  -18.7825 C   0  0  0  0  0  0  0  0  0  0  0  0
   -7.3909   -0.1916  -20.1237 C   0  0  0  0  0  0  0  0  0  0  0  0
   -8.1893   -0.6364  -21.2030 N   0  0  0  0  0  0  0  0  0  0  0  0
   -9.3791   -0.1116  -21.5860 C   0  0  0  0  0  0  0  0  0  0  0  0
   -9.8996    0.8485  -21.0354 O   0  0  0  0  0  0  0  0  0  0  0  0
  -10.0668   -0.7514  -22.8348 C   0  0  1  0  0  0  0  0  0  0  0  0
   -9.5237   -2.0623  -23.0013 O   0  0  0  0  0  0  0  0  0  0  0  0
  -10.1618   -3.1417  -22.3053 C   0  0  1  0  0  0  0  0  0  0  0  0
  -11.5817   -0.6950  -22.8116 C   0  0  0  0  0  0  0  0  0  0  0  0
  -12.3112   -1.2723  -21.7737 C   0  0  0  0  0  0  0  0  0  0  0  0
  -13.6830   -1.1032  -21.7336 C   0  0  0  0  0  0  0  0  0  0  0  0
  -14.6040   -1.9884  -20.5516 Cl  0  0  0  0  0  0  0  0  0  0  0  0
  -14.3480   -0.3212  -22.6529 C   0  0  0  0  0  0  0  0  0  0  0  0
  -13.6358    0.2656  -23.6838 C   0  0  0  0  0  0  0  0  0  0  0  0
  -12.2688    0.0545  -23.7691 C   0  0  0  0  0  0  0  0  0  0  0  0
  -11.6502    0.5815  -24.8761 O   0  0  0  0  0  0  0  0  0  0  0  0
  -10.3043    1.0249  -24.6317 C   0  0  1  0  0  0  0  0  0  0  0  0
   -9.4270   -0.0665  -24.0539 C   0  0  2  0  0  0  0  0  0  0  0  0
   -3.0716    2.7918  -20.9741 H   0  0  0  0  0  0  0  0  0  0  0  0
   -3.7439    2.2333  -18.6924 H   0  0  0  0  0  0  0  0  0  0  0  0
   -6.3658    0.6232  -22.5677 H   0  0  0  0  0  0  0  0  0  0  0  0
   -5.3422    1.0959  -17.1477 H   0  0  0  0  0  0  0  0  0  0  0  0
   -8.5820   -1.0248  -18.5753 H   0  0  0  0  0  0  0  0  0  0  0  0
   -7.8437   -1.4105  -21.7334 H   0  0  0  0  0  0  0  0  0  0  0  0
   -9.6378   -4.0829  -22.5278 H   0  0  0  0  0  0  0  0  0  0  0  0
  -10.1281   -2.9505  -21.2226 H   0  0  0  0  0  0  0  0  0  0  0  0
  -11.2095   -3.2196  -22.6315 H   0  0  0  0  0  0  0  0  0  0  0  0
  -11.8099   -1.8461  -21.0082 H   0  0  0  0  0  0  0  0  0  0  0  0
  -15.4138   -0.1680  -22.5696 H   0  0  0  0  0  0  0  0  0  0  0  0
  -14.1397    0.8814  -24.4141 H   0  0  0  0  0  0  0  0  0  0  0  0
   -9.8665    1.3623  -25.5828 H   0  0  0  0  0  0  0  0  0  0  0  0
  -10.3336    1.8656  -23.9229 H   0  0  0  0  0  0  0  0  0  0  0  0
   -9.2484   -0.8242  -24.8310 H   0  0  0  0  0  0  0  0  0  0  0  0
   -8.4684    0.3769  -23.7468 H   0  0  0  0  0  0  0  0  0  0  0  0
  1  2  1  0
  2  3  2  0
  2  5  1  0
  3  4  1  0
  3 28  1  0
  4  7  2  0
  4 29  1  0
  5  6  2  0
  5 30  1  0
  6  7  1  0
  6 11  1  0
  7  8  1  0
  8  9  2  0
  8 31  1  0
  9 10  1  0
 10 11  2  0
 10 32  1  0
 11 12  1  0
 12 13  1  0
 12 33  1  0
 13 14  2  0
 13 15  1  0
 15 16  1  6
 15 18  1  0
 15 27  1  0
 16 17  1  0
 17 34  1  1
 17 35  1  0
 17 36  1  0
 18 19  2  0
 18 24  1  0
 19 20  1  0
 19 37  1  0
 20 21  1  0
 20 22  2  0
 22 23  1  0
 22 38  1  0
 23 24  2  0
 23 39  1  0
 24 25  1  0
 25 26  1  0
 26 27  1  0
 26 40  1  6
 26 41  1  0
 27 42  1  6
 27 43  1  0
M  END
$$$$
