LIG(A-306)
     RDKit          3D

 41 43  0  0  0  0  0  0  0  0999 V2000
   13.9863   -1.2651   21.5469 Cl  0  0  0  0  0  0  0  0  0  0  0  0
   12.6533   -0.8042   22.5679 C   0  0  0  0  0  0  0  0  0  0  0  0
   12.8693    0.0929   23.5939 C   0  0  0  0  0  0  0  0  0  0  0  0
   11.7912    0.4888   24.3669 C   0  0  0  0  0  0  0  0  0  0  0  0
   10.5213    0.0017   24.0959 C   0  0  0  0  0  0  0  0  0  0  0  0
   11.3973   -1.3083   22.2960 C   0  0  0  0  0  0  0  0  0  0  0  0
   10.3053   -0.8774   23.0420 C   0  0  0  0  0  0  0  0  0  0  0  0
    8.9023   -1.2375   22.6120 C   0  0  1  0  0  0  0  0  0  0  0  0
    8.2933   -0.1996   21.6900 C   0  0  0  0  0  0  0  0  0  0  0  0
    8.8902    0.8335   21.3839 O   0  0  0  0  0  0  0  0  0  0  0  0
    7.0793   -0.5317   21.2060 N   0  0  0  0  0  0  0  0  0  0  0  0
    6.4262   -0.0137   20.0760 C   0  0  0  0  0  0  0  0  0  0  0  0
    6.8252   -0.2777   18.7670 C   0  0  0  0  0  0  0  0  0  0  0  0
    6.2522    0.2382   17.6710 N   0  0  0  0  0  0  0  0  0  0  0  0
    5.2321    1.0671   17.8460 C   0  0  0  0  0  0  0  0  0  0  0  0
    4.7071    1.4301   19.1100 C   0  0  0  0  0  0  0  0  0  0  0  0
    5.3141    0.8622   20.2640 C   0  0  0  0  0  0  0  0  0  0  0  0
    4.7831    1.2032   21.5360 C   0  0  0  0  0  0  0  0  0  0  0  0
    3.7351    2.0701   21.6530 C   0  0  0  0  0  0  0  0  0  0  0  0
    3.6260    2.3250   19.2710 C   0  0  0  0  0  0  0  0  0  0  0  0
    3.1510    2.6520   20.5190 C   0  0  0  0  0  0  0  0  0  0  0  0
    2.0229    3.6269   20.6690 C   0  0  0  0  0  0  0  0  0  0  0  0
    1.6149    3.9479   21.7820 O   0  0  0  0  0  0  0  0  0  0  0  0
    1.4509    4.0759   19.5510 N   0  0  0  0  0  0  0  0  0  0  0  0
    0.1058    4.6247   19.5420 C   0  0  1  0  0  0  0  0  0  0  0  0
   13.8589    0.4781   23.7899 H   0  0  0  0  0  0  0  0  0  0  0  0
   11.9397    1.1794   25.1839 H   0  0  0  0  0  0  0  0  0  0  0  0
    9.6896    0.3096   24.7121 H   0  0  0  0  0  0  0  0  0  0  0  0
   11.2632   -2.0340   21.5075 H   0  0  0  0  0  0  0  0  0  0  0  0
    8.9315   -2.2030   22.0858 H   0  0  0  0  0  0  0  0  0  0  0  0
    8.2709   -1.3272   23.5082 H   0  0  0  0  0  0  0  0  0  0  0  0
    6.5822   -1.2343   21.7152 H   0  0  0  0  0  0  0  0  0  0  0  0
    7.6594   -0.9489   18.6252 H   0  0  0  0  0  0  0  0  0  0  0  0
    4.7716    1.4933   16.9670 H   0  0  0  0  0  0  0  0  0  0  0  0
    5.2155    0.7695   22.4256 H   0  0  0  0  0  0  0  0  0  0  0  0
    3.3504    2.3111   22.6330 H   0  0  0  0  0  0  0  0  0  0  0  0
    3.1640    2.7605   18.3973 H   0  0  0  0  0  0  0  0  0  0  0  0
    1.9632    4.0334   18.6932 H   0  0  0  0  0  0  0  0  0  0  0  0
   -0.1592    4.9304   18.5191 H   0  0  0  0  0  0  0  0  0  0  0  0
   -0.6041    3.8608   19.8918 H   0  0  0  0  0  0  0  0  0  0  0  0
    0.0621    5.4987   20.2086 H   0  0  0  0  0  0  0  0  0  0  0  0
  1  2  1  0
  2  3  2  0
  2  6  1  0
  3  4  1  0
  3 26  1  0
  4  5  2  0
  4 27  1  0
  5  7  1  0
  5 28  1  0
  6  7  2  0
  6 29  1  0
  7  8  1  0
  8  9  1  0
  8 30  1  6
  8 31  1  0
  9 10  2  0
  9 11  1  0
 11 12  1  0
 11 32  1  0
 12 13  2  0
 12 17  1  0
 13 14  1  0
 13 33  1  0
 14 15  2  0
 15 16  1  0
 15 34  1  0
 16 17  2  0
 16 20  1  0
 17 18  1  0
 18 19  2  0
 18 35  1  0
 19 21  1  0
 19 36  1  0
 20 21  2  0
 20 37  1  0
 21 22  1  0
 22 23  2  0
 22 24  1  0
 24 25  1  0
 24 38  1  0
 25 39  1  6
 25 40  1  0
 25 41  1  0
M  END
$$$$
