LIG(A-305)
     RDKit          3D

 44 47  0  0  0  0  0  0  0  0999 V2000
    6.6713    0.9797   16.9165 O   0  0  0  0  0  0  0  0  0  0  0  0
    6.0824    0.7018   17.9616 C   0  0  0  0  0  0  0  0  0  0  0  0
    6.4414   -0.3842   18.8146 C   0  0  0  0  0  0  0  0  0  0  0  0
    5.0425    1.4819   18.3947 N   0  0  0  0  0  0  0  0  0  0  0  0
    4.3776    1.3040   19.6048 C   0  0  0  0  0  0  0  0  0  0  0  0
    4.7706    0.2590   20.4627 C   0  0  0  0  0  0  0  0  0  0  0  0
    4.1447    0.1231   21.7018 C   0  0  0  0  0  0  0  0  0  0  0  0
    3.1148    0.9781   22.0549 C   0  0  0  0  0  0  0  0  0  0  0  0
    2.7048    1.9712   21.1929 C   0  0  0  0  0  0  0  0  0  0  0  0
    3.3347    2.1471   19.9718 C   0  0  0  0  0  0  0  0  0  0  0  0
    5.8255   -0.6321   19.9976 C   0  0  0  0  0  0  0  0  0  0  0  0
    6.1585   -1.8731   20.7346 C   0  0  0  0  0  0  0  0  0  0  0  0
    5.3034   -2.7361   20.8857 O   0  0  0  0  0  0  0  0  0  0  0  0
    7.3895   -2.0072   21.2305 N   0  0  0  0  0  0  0  0  0  0  0  0
    8.5676   -1.1473   21.3844 C   0  0  1  0  0  0  0  0  0  0  0  0
    7.8795   -3.0172   22.1735 C   0  0  1  0  0  0  0  0  0  0  0  0
    9.2416   -2.3084   22.1323 C   0  0  2  0  0  0  0  0  0  0  0  0
    9.5737   -2.0243   23.5153 O   0  0  0  0  0  0  0  0  0  0  0  0
   10.3659   -0.9454   23.8042 C   0  0  0  0  0  0  0  0  0  0  0  0
   10.0260   -0.2473   24.9802 C   0  0  0  0  0  0  0  0  0  0  0  0
    8.9881   -0.7832   25.6963 O   0  0  0  0  0  0  0  0  0  0  0  0
    8.6393   -0.1652   26.9363 C   0  0  1  0  0  0  0  0  0  0  0  0
   11.4358   -0.5185   23.0291 C   0  0  0  0  0  0  0  0  0  0  0  0
   12.1430    0.6124   23.4070 C   0  0  0  0  0  0  0  0  0  0  0  0
   11.7921    1.3115   24.5430 C   0  0  0  0  0  0  0  0  0  0  0  0
   10.7452    0.8826   25.3421 C   0  0  0  0  0  0  0  0  0  0  0  0
    7.2413   -1.0399   18.5037 H   0  0  0  0  0  0  0  0  0  0  0  0
    4.7412    2.2289   17.8026 H   0  0  0  0  0  0  0  0  0  0  0  0
    4.4636   -0.6495   22.3859 H   0  0  0  0  0  0  0  0  0  0  0  0
    2.6294    0.8658   23.0130 H   0  0  0  0  0  0  0  0  0  0  0  0
    1.8858    2.6177   21.4713 H   0  0  0  0  0  0  0  0  0  0  0  0
    3.0168    2.9366   19.3071 H   0  0  0  0  0  0  0  0  0  0  0  0
    9.0559   -0.8664   20.4396 H   0  0  0  0  0  0  0  0  0  0  0  0
    8.4004   -0.2463   21.9929 H   0  0  0  0  0  0  0  0  0  0  0  0
    7.3859   -3.0035   23.1564 H   0  0  0  0  0  0  0  0  0  0  0  0
    7.8863   -4.0448   21.7810 H   0  0  0  0  0  0  0  0  0  0  0  0
   10.0116   -2.8369   21.5512 H   0  0  0  0  0  0  0  0  0  0  0  0
    7.7946   -0.7041   27.3904 H   0  0  0  0  0  0  0  0  0  0  0  0
    9.5026   -0.1966   27.6171 H   0  0  0  0  0  0  0  0  0  0  0  0
    8.3521    0.8813   26.7563 H   0  0  0  0  0  0  0  0  0  0  0  0
   11.7149   -1.0631   22.1390 H   0  0  0  0  0  0  0  0  0  0  0  0
   12.9754    0.9489   22.8069 H   0  0  0  0  0  0  0  0  0  0  0  0
   12.3395    2.2027   24.8123 H   0  0  0  0  0  0  0  0  0  0  0  0
   10.4903    1.4242   26.2410 H   0  0  0  0  0  0  0  0  0  0  0  0
  1  2  2  0
  2  3  1  0
  2  4  1  0
  3 11  2  0
  3 27  1  0
  4  5  1  0
  4 28  1  0
  5  6  2  0
  5 10  1  0
  6  7  1  0
  6 11  1  0
  7  8  2  0
  7 29  1  0
  8  9  1  0
  8 30  1  0
  9 10  2  0
  9 31  1  0
 10 32  1  0
 11 12  1  0
 12 13  2  0
 12 14  1  0
 14 15  1  0
 14 16  1  0
 15 17  1  0
 15 33  1  6
 15 34  1  0
 16 17  1  0
 16 35  1  1
 16 36  1  0
 17 18  1  0
 17 37  1  6
 18 19  1  0
 19 20  2  0
 19 23  1  0
 20 21  1  0
 20 26  1  0
 21 22  1  0
 22 38  1  1
 22 39  1  0
 22 40  1  0
 23 24  2  0
 23 41  1  0
 24 25  1  0
 24 42  1  0
 25 26  2  0
 25 43  1  0
 26 44  1  0
M  END
$$$$
