LIG(A-306)
     RDKit          3D

 47 51  0  0  1  0  0  0  0  0999 V2000
    9.3569    1.2550   21.1712 O   0  0  0  0  0  0  0  0  0  0  0  0
    8.9099    0.2975   21.7800 C   0  0  0  0  0  0  0  0  0  0  0  0
    9.6138   -0.2193   23.0334 C   0  0  2  0  0  0  0  0  0  0  0  0
    8.9807    0.4984   24.2502 C   0  0  1  0  0  0  0  0  0  0  0  0
    9.5179    1.8991   24.4420 C   0  0  1  0  0  0  0  0  0  0  0  0
   10.9639    1.8735   24.5028 N   0  0  0  0  0  0  0  0  0  0  0  0
   11.1288    0.0373   22.9499 C   0  0  0  0  0  0  0  0  0  0  0  0
   11.7084    1.1126   23.6424 C   0  0  0  0  0  0  0  0  0  0  0  0
   13.0573    1.4108   23.4630 C   0  0  0  0  0  0  0  0  0  0  0  0
   13.8319    0.6493   22.6079 C   0  0  0  0  0  0  0  0  0  0  0  0
   11.9253   -0.7536   22.1226 C   0  0  0  0  0  0  0  0  0  0  0  0
   13.2588   -0.4238   21.9554 C   0  0  0  0  0  0  0  0  0  0  0  0
   14.2255   -1.3517   20.8410 Cl  0  0  0  0  0  0  0  0  0  0  0  0
    7.7406   -0.3105   21.3989 N   0  0  0  0  0  0  0  0  0  0  0  0
    7.4024   -1.7083   21.7134 C   0  0  1  0  0  0  0  0  0  0  0  0
    7.9171   -2.1159   23.0763 C   0  0  1  0  0  0  0  0  0  0  0  0
    9.3852   -1.7362   23.2177 C   0  0  1  0  0  0  0  0  0  0  0  0
    7.0048    0.1553   20.2572 C   0  0  0  0  0  0  0  0  0  0  0  0
    5.8278    0.9510   20.3909 C   0  0  0  0  0  0  0  0  0  0  0  0
    5.2879    1.3670   21.6352 C   0  0  0  0  0  0  0  0  0  0  0  0
    4.1665    2.1455   21.6918 C   0  0  0  0  0  0  0  0  0  0  0  0
    3.5258    2.5480   20.5286 C   0  0  0  0  0  0  0  0  0  0  0  0
    4.0036    2.1727   19.3047 C   0  0  0  0  0  0  0  0  0  0  0  0
    5.1647    1.3688   19.1991 C   0  0  0  0  0  0  0  0  0  0  0  0
    5.7207    0.9716   17.9575 C   0  0  0  0  0  0  0  0  0  0  0  0
    6.8141    0.2305   17.8378 N   0  0  0  0  0  0  0  0  0  0  0  0
    7.4216   -0.1621   18.9664 C   0  0  0  0  0  0  0  0  0  0  0  0
    7.8926    0.5558   24.0987 H   0  0  0  0  0  0  0  0  0  0  0  0
    9.1943   -0.0882   25.1558 H   0  0  0  0  0  0  0  0  0  0  0  0
    9.2003    2.5293   23.5982 H   0  0  0  0  0  0  0  0  0  0  0  0
    9.1216    2.3154   25.3800 H   0  0  0  0  0  0  0  0  0  0  0  0
   11.3892    2.7354   24.7788 H   0  0  0  0  0  0  0  0  0  0  0  0
   13.4999    2.2405   23.9943 H   0  0  0  0  0  0  0  0  0  0  0  0
   14.8729    0.8910   22.4521 H   0  0  0  0  0  0  0  0  0  0  0  0
   11.5069   -1.6125   21.6189 H   0  0  0  0  0  0  0  0  0  0  0  0
    6.3085   -1.8227   21.6967 H   0  0  0  0  0  0  0  0  0  0  0  0
    7.8512   -2.3635   20.9523 H   0  0  0  0  0  0  0  0  0  0  0  0
    7.3323   -1.6029   23.8541 H   0  0  0  0  0  0  0  0  0  0  0  0
    7.8099   -3.2043   23.1950 H   0  0  0  0  0  0  0  0  0  0  0  0
    9.9664   -2.2774   22.4565 H   0  0  0  0  0  0  0  0  0  0  0  0
    9.7321   -2.0280   24.2200 H   0  0  0  0  0  0  0  0  0  0  0  0
    5.7710    1.0636   22.5523 H   0  0  0  0  0  0  0  0  0  0  0  0
    3.7749    2.4505   22.6511 H   0  0  0  0  0  0  0  0  0  0  0  0
    2.6408    3.1639   20.5912 H   0  0  0  0  0  0  0  0  0  0  0  0
    3.4909    2.4921   18.4095 H   0  0  0  0  0  0  0  0  0  0  0  0
    5.2238    1.2919   17.0538 H   0  0  0  0  0  0  0  0  0  0  0  0
    8.3060   -0.7741   18.8669 H   0  0  0  0  0  0  0  0  0  0  0  0
  1  2  2  0
  3  2  1  6
  2 14  1  0
  3  4  1  0
  3  7  1  0
  3 17  1  0
  4  5  1  0
  4 28  1  6
  4 29  1  0
  5  6  1  0
  5 30  1  6
  5 31  1  0
  6  8  1  0
  6 32  1  0
  7  8  1  0
  7 11  2  0
  8  9  2  0
  9 10  1  0
  9 33  1  0
 10 12  2  0
 10 34  1  0
 11 12  1  0
 11 35  1  0
 12 13  1  0
 14 15  1  0
 14 18  1  0
 15 16  1  0
 15 36  1  1
 15 37  1  0
 16 17  1  0
 16 38  1  1
 16 39  1  0
 17 40  1  6
 17 41  1  0
 18 19  2  0
 18 27  1  0
 19 20  1  0
 19 24  1  0
 20 21  2  0
 20 42  1  0
 21 22  1  0
 21 43  1  0
 22 23  2  0
 22 44  1  0
 23 24  1  0
 23 45  1  0
 24 25  2  0
 25 26  1  0
 25 46  1  0
 26 27  2  0
 27 47  1  0
M  END
$$$$
