LIG(A-306)
     RDKit          3D

 45 48  0  0  1  0  0  0  0  0999 V2000
  -14.6117   -2.2521  -20.9487 Cl  0  0  0  0  0  0  0  0  0  0  0  0
  -13.4032   -1.4848  -21.9432 C   0  0  0  0  0  0  0  0  0  0  0  0
  -12.0786   -1.8217  -21.7610 C   0  0  0  0  0  0  0  0  0  0  0  0
  -13.7896   -0.5422  -22.8704 C   0  0  0  0  0  0  0  0  0  0  0  0
  -12.8275    0.0678  -23.6562 C   0  0  0  0  0  0  0  0  0  0  0  0
  -11.4863   -0.2811  -23.5142 C   0  0  0  0  0  0  0  0  0  0  0  0
  -10.5192    0.1784  -24.4483 N   0  0  0  0  0  0  0  0  0  0  0  0
  -10.8183    0.8273  -25.6112 C   0  0  0  0  0  0  0  0  0  0  0  0
  -11.2388    0.2089  -26.5794 O   0  0  0  0  0  0  0  0  0  0  0  0
  -10.6074    2.3117  -25.6409 C   0  0  1  0  0  0  0  0  0  0  0  0
  -11.0964   -1.2065  -22.5323 C   0  0  0  0  0  0  0  0  0  0  0  0
   -9.6377   -1.5200  -22.2706 C   0  0  1  0  0  0  0  0  0  0  0  0
   -8.8698   -1.4348  -23.5973 C   0  0  1  0  0  0  0  0  0  0  0  0
   -9.0864   -0.0575  -24.2035 C   0  0  2  0  0  0  0  0  0  0  0  0
   -9.0509   -0.5666  -21.2264 C   0  0  0  0  0  0  0  0  0  0  0  0
   -9.6069    0.4847  -20.9103 O   0  0  0  0  0  0  0  0  0  0  0  0
   -7.8826   -0.9811  -20.6850 N   0  0  0  0  0  0  0  0  0  0  0  0
   -7.1253   -0.3522  -19.6807 C   0  0  0  0  0  0  0  0  0  0  0  0
   -6.0548    0.5099  -20.0715 C   0  0  0  0  0  0  0  0  0  0  0  0
   -5.6718    0.7320  -21.4190 C   0  0  0  0  0  0  0  0  0  0  0  0
   -4.6627    1.5989  -21.7295 C   0  0  0  0  0  0  0  0  0  0  0  0
   -3.9840    2.2833  -20.7284 C   0  0  0  0  0  0  0  0  0  0  0  0
   -4.3135    2.1009  -19.4158 C   0  0  0  0  0  0  0  0  0  0  0  0
   -5.3534    1.2107  -19.0512 C   0  0  0  0  0  0  0  0  0  0  0  0
   -5.7580    0.9984  -17.7124 C   0  0  0  0  0  0  0  0  0  0  0  0
   -6.7508    0.1973  -17.3506 N   0  0  0  0  0  0  0  0  0  0  0  0
   -7.4029   -0.4563  -18.3178 C   0  0  0  0  0  0  0  0  0  0  0  0
  -11.8039   -2.5603  -21.0224 H   0  0  0  0  0  0  0  0  0  0  0  0
  -14.8318   -0.2821  -22.9830 H   0  0  0  0  0  0  0  0  0  0  0  0
  -13.1168    0.8152  -24.3803 H   0  0  0  0  0  0  0  0  0  0  0  0
  -10.8850    2.7023  -26.6310 H   0  0  0  0  0  0  0  0  0  0  0  0
  -11.2334    2.7864  -24.8709 H   0  0  0  0  0  0  0  0  0  0  0  0
   -9.5489    2.5356  -25.4423 H   0  0  0  0  0  0  0  0  0  0  0  0
   -9.5602   -2.5485  -21.8880 H   0  0  0  0  0  0  0  0  0  0  0  0
   -7.7969   -1.5930  -23.4138 H   0  0  0  0  0  0  0  0  0  0  0  0
   -9.2411   -2.2052  -24.2890 H   0  0  0  0  0  0  0  0  0  0  0  0
   -8.7070    0.7072  -23.5097 H   0  0  0  0  0  0  0  0  0  0  0  0
   -8.5406    0.0086  -25.1562 H   0  0  0  0  0  0  0  0  0  0  0  0
   -7.5125   -1.8386  -21.0423 H   0  0  0  0  0  0  0  0  0  0  0  0
   -6.1857    0.2081  -22.2114 H   0  0  0  0  0  0  0  0  0  0  0  0
   -4.3897    1.7538  -22.7628 H   0  0  0  0  0  0  0  0  0  0  0  0
   -3.1889    2.9655  -20.9908 H   0  0  0  0  0  0  0  0  0  0  0  0
   -3.7767    2.6400  -18.6492 H   0  0  0  0  0  0  0  0  0  0  0  0
   -5.2235    1.5230  -16.9343 H   0  0  0  0  0  0  0  0  0  0  0  0
   -8.2057   -1.1150  -18.0211 H   0  0  0  0  0  0  0  0  0  0  0  0
  1  2  1  0
  2  3  2  0
  2  4  1  0
  3 11  1  0
  3 28  1  0
  4  5  2  0
  4 29  1  0
  5  6  1  0
  5 30  1  0
  6  7  1  0
  6 11  2  0
  7  8  1  0
  7 14  1  0
  8  9  2  0
  8 10  1  0
 10 31  1  6
 10 32  1  0
 10 33  1  0
 11 12  1  0
 12 13  1  0
 12 15  1  0
 12 34  1  1
 13 14  1  0
 13 35  1  1
 13 36  1  0
 14 37  1  1
 14 38  1  0
 15 16  2  0
 15 17  1  0
 17 18  1  0
 17 39  1  0
 18 19  2  0
 18 27  1  0
 19 20  1  0
 19 24  1  0
 20 21  2  0
 20 40  1  0
 21 22  1  0
 21 41  1  0
 22 23  2  0
 22 42  1  0
 23 24  1  0
 23 43  1  0
 24 25  2  0
 25 26  1  0
 25 44  1  0
 26 27  2  0
 27 45  1  0
M  END
$$$$
