LIG(A-306)
     RDKit          3D

 58 61  0  0  1  0  0  0  0  0999 V2000
   10.7480    3.1237   24.2348 O   0  0  0  0  0  0  0  0  0  0  0  0
   10.4112    1.9706   24.0428 C   0  0  0  0  0  0  0  0  0  0  0  0
    9.1793    1.5094   24.4058 N   0  0  0  0  0  0  0  0  0  0  0  0
    8.2792    2.3672   25.1608 C   0  0  1  0  0  0  0  0  0  0  0  0
    7.4040    3.3240   24.3678 C   0  0  0  0  0  0  0  0  0  0  0  0
    6.4028    3.8128   24.8848 O   0  0  0  0  0  0  0  0  0  0  0  0
    7.7729    3.6011   23.1188 N   0  0  0  0  0  0  0  0  0  0  0  0
    7.0197    4.5039   22.2668 C   0  0  1  0  0  0  0  0  0  0  0  0
   11.3105    0.9978   23.4018 C   0  0  0  0  0  0  0  0  0  0  0  0
   12.6784    1.2731   23.3478 C   0  0  0  0  0  0  0  0  0  0  0  0
   13.5506    0.3803   22.7548 C   0  0  0  0  0  0  0  0  0  0  0  0
   13.0539   -0.7898   22.2228 C   0  0  0  0  0  0  0  0  0  0  0  0
   14.1281   -1.8465   21.3558 Cl  0  0  0  0  0  0  0  0  0  0  0  0
   11.7079   -1.1031   22.2838 C   0  0  0  0  0  0  0  0  0  0  0  0
   10.8167   -0.1953   22.8548 C   0  0  0  0  0  0  0  0  0  0  0  0
    9.3178   -0.4226   22.8218 C   0  0  1  0  0  0  0  0  0  0  0  0
    8.7357    0.1213   24.1488 C   0  0  1  0  0  0  0  0  0  0  0  0
    9.0428   -0.7946   25.3228 C   0  0  1  0  0  0  0  0  0  0  0  0
    8.6776    0.3203   21.6488 C   0  0  0  0  0  0  0  0  0  0  0  0
    9.0494    1.4473   21.3138 O   0  0  0  0  0  0  0  0  0  0  0  0
    7.6788   -0.3440   21.0288 N   0  0  0  0  0  0  0  0  0  0  0  0
    6.8997    0.1049   19.9418 C   0  0  0  0  0  0  0  0  0  0  0  0
    5.7475    0.9106   20.2098 C   0  0  0  0  0  0  0  0  0  0  0  0
    5.0004    1.4035   19.0988 C   0  0  0  0  0  0  0  0  0  0  0  0
    5.4335    1.0355   17.7988 C   0  0  0  0  0  0  0  0  0  0  0  0
    6.5056    0.2948   17.5538 N   0  0  0  0  0  0  0  0  0  0  0  0
    7.2097   -0.1471   18.6068 C   0  0  0  0  0  0  0  0  0  0  0  0
    5.3194    1.2655   21.5158 C   0  0  0  0  0  0  0  0  0  0  0  0
    4.2332    2.0693   21.7108 C   0  0  0  0  0  0  0  0  0  0  0  0
    3.5291    2.5561   20.6178 C   0  0  0  0  0  0  0  0  0  0  0  0
    3.8862    2.2392   19.3378 C   0  0  0  0  0  0  0  0  0  0  0  0
    2.1139    3.5858   20.8788 S   0  0  2  0  0  0  0  0  0  0  0  0
    1.2820    2.9567   21.8658 O   0  0  0  0  0  0  0  0  0  0  0  0
    1.5348    3.8907   19.5998 O   0  0  0  0  0  0  0  0  0  0  0  0
    2.7656    5.0660   21.5548 C   0  0  1  0  0  0  0  0  0  0  0  0
    7.6125    1.7152   25.7444 H   0  0  0  0  0  0  0  0  0  0  0  0
    8.8934    2.9706   25.8454 H   0  0  0  0  0  0  0  0  0  0  0  0
    8.5991    3.1716   22.7541 H   0  0  0  0  0  0  0  0  0  0  0  0
    7.5112    4.5784   21.2855 H   0  0  0  0  0  0  0  0  0  0  0  0
    5.9979    4.1181   22.1366 H   0  0  0  0  0  0  0  0  0  0  0  0
    6.9791    5.4994   22.7329 H   0  0  0  0  0  0  0  0  0  0  0  0
   13.0576    2.1908   23.7727 H   0  0  0  0  0  0  0  0  0  0  0  0
   14.6076    0.5968   22.7089 H   0  0  0  0  0  0  0  0  0  0  0  0
   11.3500   -2.0438   21.8921 H   0  0  0  0  0  0  0  0  0  0  0  0
    9.1039   -1.4985   22.7411 H   0  0  0  0  0  0  0  0  0  0  0  0
    7.6420    0.1392   24.0313 H   0  0  0  0  0  0  0  0  0  0  0  0
    8.6119   -0.3707   26.2418 H   0  0  0  0  0  0  0  0  0  0  0  0
    8.6065   -1.7872   25.1373 H   0  0  0  0  0  0  0  0  0  0  0  0
   10.1327   -0.8890   25.4387 H   0  0  0  0  0  0  0  0  0  0  0  0
    7.4677   -1.2563   21.3795 H   0  0  0  0  0  0  0  0  0  0  0  0
    4.8534    1.3805   16.9557 H   0  0  0  0  0  0  0  0  0  0  0  0
    8.0858   -0.7451   18.4039 H   0  0  0  0  0  0  0  0  0  0  0  0
    5.8631    0.8928   22.3712 H   0  0  0  0  0  0  0  0  0  0  0  0
    3.9225    2.3257   22.7128 H   0  0  0  0  0  0  0  0  0  0  0  0
    3.3160    2.6281   18.5071 H   0  0  0  0  0  0  0  0  0  0  0  0
    1.9454    5.7724   21.7507 H   0  0  0  0  0  0  0  0  0  0  0  0
    3.2876    4.8402   22.4963 H   0  0  0  0  0  0  0  0  0  0  0  0
    3.4730    5.5143   20.8416 H   0  0  0  0  0  0  0  0  0  0  0  0
  1  2  2  0
  2  3  1  0
  2  9  1  0
  3  4  1  0
  3 17  1  0
  4  5  1  0
  4 36  1  1
  4 37  1  0
  5  6  2  0
  5  7  1  0
  7  8  1  0
  7 38  1  0
  8 39  1  6
  8 40  1  0
  8 41  1  0
  9 10  2  0
  9 15  1  0
 10 11  1  0
 10 42  1  0
 11 12  2  0
 11 43  1  0
 12 13  1  0
 12 14  1  0
 14 15  2  0
 14 44  1  0
 15 16  1  0
 16 17  1  0
 16 19  1  0
 16 45  1  6
 17 18  1  0
 17 46  1  6
 18 47  1  1
 18 48  1  0
 18 49  1  0
 19 20  2  0
 19 21  1  0
 21 22  1  0
 21 50  1  0
 22 23  2  0
 22 27  1  0
 23 24  1  0
 23 28  1  0
 24 25  2  0
 24 31  1  0
 25 26  1  0
 25 51  1  0
 26 27  2  0
 27 52  1  0
 28 29  2  0
 28 53  1  0
 29 30  1  0
 29 54  1  0
 30 31  2  0
 32 30  1  6
 31 55  1  0
 32 33  2  0
 32 34  2  0
 32 35  1  0
 35 56  1  1
 35 57  1  0
 35 58  1  0
M  END
$$$$
