LIG(A-306)
     RDKit          3D

 38 40  0  0  0  0  0  0  0  0999 V2000
   14.1600   -1.5616   21.5055 Cl  0  0  0  0  0  0  0  0  0  0  0  0
   12.8745   -0.8784   22.4621 C   0  0  0  0  0  0  0  0  0  0  0  0
   13.1652    0.1194   23.3715 C   0  0  0  0  0  0  0  0  0  0  0  0
   12.1259    0.6667   24.1090 C   0  0  0  0  0  0  0  0  0  0  0  0
   10.8230    0.2371   23.9051 C   0  0  0  0  0  0  0  0  0  0  0  0
   11.5865   -1.3289   22.2634 C   0  0  0  0  0  0  0  0  0  0  0  0
   10.5372   -0.7468   22.9667 C   0  0  0  0  0  0  0  0  0  0  0  0
    9.1110   -1.0977   22.6203 C   0  0  1  0  0  0  0  0  0  0  0  0
    8.5324   -0.1218   21.6148 C   0  0  0  0  0  0  0  0  0  0  0  0
    9.1910    0.8148   21.1595 O   0  0  0  0  0  0  0  0  0  0  0  0
    7.2358   -0.3169   21.3274 N   0  0  0  0  0  0  0  0  0  0  0  0
    6.5369   -0.0416   20.1406 C   0  0  0  0  0  0  0  0  0  0  0  0
    7.0698   -0.0948   18.8528 C   0  0  0  0  0  0  0  0  0  0  0  0
    6.5193    0.4515   17.7603 N   0  0  0  0  0  0  0  0  0  0  0  0
    5.3936    1.1308   17.9199 C   0  0  0  0  0  0  0  0  0  0  0  0
    5.3132    0.6765   20.3050 C   0  0  0  0  0  0  0  0  0  0  0  0
    4.7454    1.3085   19.1659 C   0  0  0  0  0  0  0  0  0  0  0  0
    3.6193    2.1479   19.3425 C   0  0  0  0  0  0  0  0  0  0  0  0
    3.0731    2.3358   20.5784 C   0  0  0  0  0  0  0  0  0  0  0  0
    4.7049    0.8834   21.5688 C   0  0  0  0  0  0  0  0  0  0  0  0
    3.5959    1.6846   21.7016 C   0  0  0  0  0  0  0  0  0  0  0  0
    2.8971    1.7367   23.0334 C   0  0  0  0  0  0  0  0  0  0  0  0
    3.4783    1.3149   24.0452 O   0  0  0  0  0  0  0  0  0  0  0  0
    1.6450    2.1798   23.0607 N   0  0  0  0  0  0  0  0  0  0  0  0
   14.1793    0.4658   23.5053 H   0  0  0  0  0  0  0  0  0  0  0  0
   12.3320    1.4301   24.8447 H   0  0  0  0  0  0  0  0  0  0  0  0
   10.0210    0.6727   24.4826 H   0  0  0  0  0  0  0  0  0  0  0  0
   11.3935   -2.1298   21.5650 H   0  0  0  0  0  0  0  0  0  0  0  0
    9.0850   -2.1106   22.1922 H   0  0  0  0  0  0  0  0  0  0  0  0
    8.5028   -1.0710   23.5364 H   0  0  0  0  0  0  0  0  0  0  0  0
    6.6892   -0.7155   22.0637 H   0  0  0  0  0  0  0  0  0  0  0  0
    8.0046   -0.6206   18.7256 H   0  0  0  0  0  0  0  0  0  0  0  0
    4.9424    1.5766   17.0458 H   0  0  0  0  0  0  0  0  0  0  0  0
    3.1870    2.6463   18.4874 H   0  0  0  0  0  0  0  0  0  0  0  0
    2.2259    2.9959   20.6916 H   0  0  0  0  0  0  0  0  0  0  0  0
    5.1202    0.4032   22.4424 H   0  0  0  0  0  0  0  0  0  0  0  0
    1.1338    2.1817   23.9202 H   0  0  0  0  0  0  0  0  0  0  0  0
    1.2136    2.5115   22.2218 H   0  0  0  0  0  0  0  0  0  0  0  0
  1  2  1  0
  2  3  2  0
  2  6  1  0
  3  4  1  0
  3 25  1  0
  4  5  2  0
  4 26  1  0
  5  7  1  0
  5 27  1  0
  6  7  2  0
  6 28  1  0
  7  8  1  0
  8  9  1  0
  8 29  1  6
  8 30  1  0
  9 10  2  0
  9 11  1  0
 11 12  1  0
 11 31  1  0
 12 13  2  0
 12 16  1  0
 13 14  1  0
 13 32  1  0
 14 15  2  0
 15 17  1  0
 15 33  1  0
 16 17  2  0
 16 20  1  0
 17 18  1  0
 18 19  2  0
 18 34  1  0
 19 21  1  0
 19 35  1  0
 20 21  2  0
 20 36  1  0
 21 22  1  0
 22 23  2  0
 22 24  1  0
 24 37  1  0
 24 38  1  0
M  END
$$$$
