LIG(A-306)
     RDKit          3D

 38 41  0  0  1  0  0  0  0  0999 V2000
    9.2307    1.4715   21.2152 O   0  0  0  0  0  0  0  0  0  0  0  0
    8.8310    0.3917   21.6218 C   0  0  0  0  0  0  0  0  0  0  0  0
    9.4322   -0.4460   22.7463 C   0  0  2  0  0  0  0  0  0  0  0  0
   10.9379   -0.3137   22.9082 C   0  0  0  0  0  0  0  0  0  0  0  0
   11.4697    0.6013   23.8090 C   0  0  0  0  0  0  0  0  0  0  0  0
   12.8396    0.8047   23.8893 C   0  0  0  0  0  0  0  0  0  0  0  0
   13.7007    0.0990   23.0621 C   0  0  0  0  0  0  0  0  0  0  0  0
   11.8028   -1.0496   22.1039 C   0  0  0  0  0  0  0  0  0  0  0  0
   13.1647   -0.8178   22.1753 C   0  0  0  0  0  0  0  0  0  0  0  0
   14.2212   -1.6451   21.0620 Cl  0  0  0  0  0  0  0  0  0  0  0  0
    7.7434   -0.2858   21.1447 N   0  0  0  0  0  0  0  0  0  0  0  0
    7.5530   -1.5906   21.7973 C   0  0  1  0  0  0  0  0  0  0  0  0
    8.9258   -1.8696   22.4025 C   0  0  1  0  0  0  0  0  0  0  0  0
    6.8705    0.1817   20.1124 C   0  0  0  0  0  0  0  0  0  0  0  0
    5.7162    0.9750   20.3910 C   0  0  0  0  0  0  0  0  0  0  0  0
    5.3009    1.3438   21.6990 C   0  0  0  0  0  0  0  0  0  0  0  0
    4.2082    2.1436   21.8906 C   0  0  0  0  0  0  0  0  0  0  0  0
    3.4800    2.6213   20.8081 C   0  0  0  0  0  0  0  0  0  0  0  0
    3.8425    2.2999   19.5299 C   0  0  0  0  0  0  0  0  0  0  0  0
    4.9637    1.4680   19.2856 C   0  0  0  0  0  0  0  0  0  0  0  0
    5.4057    1.1276   17.9835 C   0  0  0  0  0  0  0  0  0  0  0  0
    6.4786    0.3954   17.7287 N   0  0  0  0  0  0  0  0  0  0  0  0
    7.1794   -0.0573   18.7770 C   0  0  0  0  0  0  0  0  0  0  0  0
    8.9582   -0.1399   23.6905 H   0  0  0  0  0  0  0  0  0  0  0  0
   10.8085    1.1607   24.4543 H   0  0  0  0  0  0  0  0  0  0  0  0
   13.2372    1.5154   24.5988 H   0  0  0  0  0  0  0  0  0  0  0  0
   14.7673    0.2618   23.1094 H   0  0  0  0  0  0  0  0  0  0  0  0
   11.4134   -1.7969   21.4283 H   0  0  0  0  0  0  0  0  0  0  0  0
    6.7799   -1.5341   22.5778 H   0  0  0  0  0  0  0  0  0  0  0  0
    7.2785   -2.3638   21.0646 H   0  0  0  0  0  0  0  0  0  0  0  0
    9.5883   -2.3632   21.6761 H   0  0  0  0  0  0  0  0  0  0  0  0
    8.8436   -2.4919   23.3058 H   0  0  0  0  0  0  0  0  0  0  0  0
    5.8562    0.9874   22.5540 H   0  0  0  0  0  0  0  0  0  0  0  0
    3.9082    2.4066   22.8943 H   0  0  0  0  0  0  0  0  0  0  0  0
    2.6199    3.2520   20.9781 H   0  0  0  0  0  0  0  0  0  0  0  0
    3.2694    2.6835   18.6987 H   0  0  0  0  0  0  0  0  0  0  0  0
    4.8299    1.4887   17.1442 H   0  0  0  0  0  0  0  0  0  0  0  0
    8.0541   -0.6556   18.5689 H   0  0  0  0  0  0  0  0  0  0  0  0
  1  2  2  0
  2  3  1  0
  2 11  1  0
  3  4  1  0
  3 13  1  0
  3 24  1  1
  4  5  2  0
  4  8  1  0
  5  6  1  0
  5 25  1  0
  6  7  2  0
  6 26  1  0
  7  9  1  0
  7 27  1  0
  8  9  2  0
  8 28  1  0
  9 10  1  0
 11 12  1  0
 11 14  1  0
 12 13  1  0
 12 29  1  1
 12 30  1  0
 13 31  1  6
 13 32  1  0
 14 15  2  0
 14 23  1  0
 15 16  1  0
 15 20  1  0
 16 17  2  0
 16 33  1  0
 17 18  1  0
 17 34  1  0
 18 19  2  0
 18 35  1  0
 19 20  1  0
 19 36  1  0
 20 21  2  0
 21 22  1  0
 21 37  1  0
 22 23  2  0
 23 38  1  0
M  END
$$$$
