LIG(A-306)
     RDKit          3D

 56 60  0  0  1  0  0  0  0  0999 V2000
   -9.8403    0.8213  -21.0660 O   0  0  0  0  0  0  0  0  0  0  0  0
   -9.4103   -0.2766  -21.3942 C   0  0  0  0  0  0  0  0  0  0  0  0
   -8.4569   -0.8834  -20.6634 N   0  0  0  0  0  0  0  0  0  0  0  0
   -7.3958   -0.4417  -19.8542 C   0  0  0  0  0  0  0  0  0  0  0  0
   -6.4172    0.4976  -20.3262 C   0  0  0  0  0  0  0  0  0  0  0  0
   -6.1293    0.7155  -21.6998 C   0  0  0  0  0  0  0  0  0  0  0  0
   -5.0888    1.5153  -22.0833 C   0  0  0  0  0  0  0  0  0  0  0  0
   -4.2962    2.1502  -21.1371 C   0  0  0  0  0  0  0  0  0  0  0  0
   -4.5429    1.9883  -19.8034 C   0  0  0  0  0  0  0  0  0  0  0  0
   -5.5994    1.1524  -19.3619 C   0  0  0  0  0  0  0  0  0  0  0  0
   -5.8325    0.8663  -17.9996 C   0  0  0  0  0  0  0  0  0  0  0  0
   -6.7370    0.0090  -17.5624 N   0  0  0  0  0  0  0  0  0  0  0  0
   -7.4686   -0.6352  -18.4777 C   0  0  0  0  0  0  0  0  0  0  0  0
  -10.0306   -1.0511  -22.5841 C   0  0  2  0  0  0  0  0  0  0  0  0
   -9.3886   -0.4184  -23.8427 C   0  0  1  0  0  0  0  0  0  0  0  0
  -10.0018    0.9262  -24.1734 C   0  0  1  0  0  0  0  0  0  0  0  0
  -11.4173    0.8334  -24.4020 O   0  0  0  0  0  0  0  0  0  0  0  0
  -11.5431   -0.8134  -22.6085 C   0  0  0  0  0  0  0  0  0  0  0  0
  -12.1289    0.1309  -23.4596 C   0  0  0  0  0  0  0  0  0  0  0  0
  -13.4943    0.3671  -23.4531 C   0  0  0  0  0  0  0  0  0  0  0  0
  -14.3030   -0.3518  -22.5936 C   0  0  0  0  0  0  0  0  0  0  0  0
  -12.3768   -1.5502  -21.7689 C   0  0  0  0  0  0  0  0  0  0  0  0
  -13.7352   -1.2930  -21.7614 C   0  0  0  0  0  0  0  0  0  0  0  0
  -14.7367   -2.0996  -20.5829 Cl  0  0  0  0  0  0  0  0  0  0  0  0
   -9.7763   -2.5788  -22.5635 C   0  0  1  0  0  0  0  0  0  0  0  0
   -9.9513   -3.1960  -23.8664 N   0  0  0  0  0  0  0  0  0  0  0  0
   -9.0268   -3.9683  -24.4232 C   0  0  0  0  0  0  0  0  0  0  0  0
   -8.3951   -4.8250  -23.8048 O   0  0  0  0  0  0  0  0  0  0  0  0
   -8.7148   -3.6312  -25.8714 C   0  0  1  0  0  0  0  0  0  0  0  0
   -9.2283   -4.5907  -26.8430 N   0  0  0  0  0  0  0  0  0  0  0  0
  -10.2930   -5.4006  -26.7045 C   0  0  0  0  0  0  0  0  0  0  0  0
  -10.4632   -6.1807  -27.7489 N   0  0  0  0  0  0  0  0  0  0  0  0
   -9.4504   -5.8402  -28.6110 C   0  0  0  0  0  0  0  0  0  0  0  0
   -8.6834   -4.8658  -28.0746 C   0  0  0  0  0  0  0  0  0  0  0  0
   -8.5174   -1.8806  -20.7060 H   0  0  0  0  0  0  0  0  0  0  0  0
   -6.7417    0.2421  -22.4530 H   0  0  0  0  0  0  0  0  0  0  0  0
   -4.8815    1.6547  -23.1340 H   0  0  0  0  0  0  0  0  0  0  0  0
   -3.4776    2.7774  -21.4581 H   0  0  0  0  0  0  0  0  0  0  0  0
   -3.9279    2.5016  -19.0790 H   0  0  0  0  0  0  0  0  0  0  0  0
   -5.2312    1.3828  -17.2660 H   0  0  0  0  0  0  0  0  0  0  0  0
   -8.1762   -1.3678  -18.1184 H   0  0  0  0  0  0  0  0  0  0  0  0
   -8.3117   -0.2838  -23.6634 H   0  0  0  0  0  0  0  0  0  0  0  0
   -9.5362   -1.0963  -24.6963 H   0  0  0  0  0  0  0  0  0  0  0  0
   -9.8225    1.6139  -23.3338 H   0  0  0  0  0  0  0  0  0  0  0  0
   -9.5213    1.3217  -25.0804 H   0  0  0  0  0  0  0  0  0  0  0  0
  -13.9225    1.1064  -24.1138 H   0  0  0  0  0  0  0  0  0  0  0  0
  -15.3687   -0.1782  -22.5739 H   0  0  0  0  0  0  0  0  0  0  0  0
  -11.9648   -2.3165  -21.1290 H   0  0  0  0  0  0  0  0  0  0  0  0
   -8.7453   -2.7589  -22.2250 H   0  0  0  0  0  0  0  0  0  0  0  0
  -10.4804   -3.0429  -21.8574 H   0  0  0  0  0  0  0  0  0  0  0  0
  -10.8030   -3.0324  -24.3643 H   0  0  0  0  0  0  0  0  0  0  0  0
   -9.1525   -2.6475  -26.0966 H   0  0  0  0  0  0  0  0  0  0  0  0
   -7.6217   -3.5806  -25.9840 H   0  0  0  0  0  0  0  0  0  0  0  0
  -10.9343   -5.4091  -25.8356 H   0  0  0  0  0  0  0  0  0  0  0  0
   -9.2895   -6.2878  -29.5806 H   0  0  0  0  0  0  0  0  0  0  0  0
   -7.8187   -4.3985  -28.5222 H   0  0  0  0  0  0  0  0  0  0  0  0
  1  2  2  0
  2  3  1  0
 14  2  1  1
  3  4  1  0
  3 35  1  0
  4  5  2  0
  4 13  1  0
  5  6  1  0
  5 10  1  0
  6  7  2  0
  6 36  1  0
  7  8  1  0
  7 37  1  0
  8  9  2  0
  8 38  1  0
  9 10  1  0
  9 39  1  0
 10 11  2  0
 11 12  1  0
 11 40  1  0
 12 13  2  0
 13 41  1  0
 14 15  1  0
 14 18  1  0
 14 25  1  0
 15 16  1  0
 15 42  1  1
 15 43  1  0
 16 17  1  0
 16 44  1  1
 16 45  1  0
 17 19  1  0
 18 19  2  0
 18 22  1  0
 19 20  1  0
 20 21  2  0
 20 46  1  0
 21 23  1  0
 21 47  1  0
 22 23  2  0
 22 48  1  0
 23 24  1  0
 25 26  1  0
 25 49  1  1
 25 50  1  0
 26 27  1  0
 26 51  1  0
 27 28  2  0
 27 29  1  0
 29 30  1  0
 29 52  1  6
 29 53  1  0
 30 31  1  0
 30 34  1  0
 31 32  2  0
 31 54  1  0
 32 33  1  0
 33 34  2  0
 33 55  1  0
 34 56  1  0
M  END
$$$$
