LIG(A-305)
     RDKit          3D

 37 39  0  0  0  0  0  0  0  0999 V2000
   13.9220   -1.8400   21.1700 Cl  0  0  0  0  0  0  0  0  0  0  0  0
   12.8249   -0.9601   22.1900 C   0  0  0  0  0  0  0  0  0  0  0  0
   13.3329   -0.0980   23.1420 C   0  0  0  0  0  0  0  0  0  0  0  0
   12.4579    0.4760   24.0510 C   0  0  0  0  0  0  0  0  0  0  0  0
   11.0989    0.2099   23.9750 C   0  0  0  0  0  0  0  0  0  0  0  0
   11.4740   -1.2212   22.0941 C   0  0  0  0  0  0  0  0  0  0  0  0
   10.5930   -0.6222   22.9871 C   0  0  0  0  0  0  0  0  0  0  0  0
    9.1060   -0.8163   22.8242 C   0  0  1  0  0  0  0  0  0  0  0  0
    8.5738   -0.0864   21.6042 C   0  0  0  0  0  0  0  0  0  0  0  0
    9.2748    0.6896   20.9731 O   0  0  0  0  0  0  0  0  0  0  0  0
    7.2658   -0.2715   21.2833 N   0  0  0  0  0  0  0  0  0  0  0  0
    6.2789   -0.8565   22.2033 C   0  0  1  0  0  0  0  0  0  0  0  0
    5.3619    0.2485   22.7133 C   0  0  1  0  0  0  0  0  0  0  0  0
    4.8188    1.1584   21.6003 C   0  0  1  0  0  0  0  0  0  0  0  0
    5.4557    0.9283   20.2473 C   0  0  0  0  0  0  0  0  0  0  0  0
    4.8336    1.3972   19.0853 C   0  0  0  0  0  0  0  0  0  0  0  0
    3.6286    2.0702   19.1433 N   0  0  0  0  0  0  0  0  0  0  0  0
    6.6598    0.2214   20.1103 C   0  0  0  0  0  0  0  0  0  0  0  0
    7.1967    0.0254   18.8442 C   0  0  0  0  0  0  0  0  0  0  0  0
    6.6296    0.4643   17.7192 N   0  0  0  0  0  0  0  0  0  0  0  0
    5.4776    1.1352   17.8313 C   0  0  0  0  0  0  0  0  0  0  0  0
   14.3892    0.1242   23.1774 H   0  0  0  0  0  0  0  0  0  0  0  0
   12.8357    1.1326   24.8208 H   0  0  0  0  0  0  0  0  0  0  0  0
   10.4268    0.6556   24.6934 H   0  0  0  0  0  0  0  0  0  0  0  0
   11.1027   -1.8873   21.3294 H   0  0  0  0  0  0  0  0  0  0  0  0
    8.8966   -1.8907   22.7160 H   0  0  0  0  0  0  0  0  0  0  0  0
    8.5962   -0.4318   23.7199 H   0  0  0  0  0  0  0  0  0  0  0  0
    5.6839   -1.6145   21.6729 H   0  0  0  0  0  0  0  0  0  0  0  0
    6.7983   -1.3259   23.0518 H   0  0  0  0  0  0  0  0  0  0  0  0
    4.5092   -0.2174   23.2290 H   0  0  0  0  0  0  0  0  0  0  0  0
    5.9267    0.8685   23.4251 H   0  0  0  0  0  0  0  0  0  0  0  0
    3.7370    0.9819   21.5072 H   0  0  0  0  0  0  0  0  0  0  0  0
    4.9959    2.2041   21.8920 H   0  0  0  0  0  0  0  0  0  0  0  0
    3.3436    2.3249   18.2192 H   0  0  0  0  0  0  0  0  0  0  0  0
    3.7333    2.8952   19.6986 H   0  0  0  0  0  0  0  0  0  0  0  0
    8.1288   -0.5145   18.7660 H   0  0  0  0  0  0  0  0  0  0  0  0
    5.0077    1.4987   16.9294 H   0  0  0  0  0  0  0  0  0  0  0  0
  1  2  1  0
  2  3  2  0
  2  6  1  0
  3  4  1  0
  3 22  1  0
  4  5  2  0
  4 23  1  0
  5  7  1  0
  5 24  1  0
  6  7  2  0
  6 25  1  0
  7  8  1  0
  8  9  1  0
  8 26  1  6
  8 27  1  0
  9 10  2  0
  9 11  1  0
 11 12  1  0
 11 18  1  0
 12 13  1  0
 12 28  1  6
 12 29  1  0
 13 14  1  0
 13 30  1  1
 13 31  1  0
 14 15  1  0
 14 32  1  6
 14 33  1  0
 15 16  2  0
 15 18  1  0
 16 17  1  0
 16 21  1  0
 17 34  1  0
 17 35  1  0
 18 19  2  0
 19 20  1  0
 19 36  1  0
 20 21  2  0
 21 37  1  0
M  END
$$$$
