LIG(B-306)
     RDKit          3D

 40 44  0  0  0  0  0  0  0  0999 V2000
  -14.1957   -2.7872  -20.9083 Cl  0  0  0  0  0  0  0  0  0  0  0  0
  -13.0733   -2.7328  -22.2420 C   0  0  0  0  0  0  0  0  0  0  0  0
  -11.8230   -2.1885  -22.0343 C   0  0  0  0  0  0  0  0  0  0  0  0
  -13.4643   -3.2135  -23.4789 C   0  0  0  0  0  0  0  0  0  0  0  0
  -12.5832   -3.1380  -24.5443 C   0  0  0  0  0  0  0  0  0  0  0  0
  -11.3317   -2.5708  -24.3432 C   0  0  0  0  0  0  0  0  0  0  0  0
  -10.4841   -2.5020  -25.4237 O   0  0  0  0  0  0  0  0  0  0  0  0
   -9.2155   -1.8932  -25.0684 C   0  0  1  0  0  0  0  0  0  0  0  0
   -9.4795   -0.5993  -24.2799 C   0  0  1  0  0  0  0  0  0  0  0  0
   -8.7059   -2.5485  -23.7739 C   0  0  1  0  0  0  0  0  0  0  0  0
  -10.9395   -2.0940  -23.1032 C   0  0  0  0  0  0  0  0  0  0  0  0
   -9.5379   -1.4831  -22.9958 C   0  0  2  0  0  0  0  0  0  0  0  0
   -9.1389   -0.9313  -21.6146 C   0  0  0  0  0  0  0  0  0  0  0  0
   -9.6998    0.0471  -21.1480 O   0  0  0  0  0  0  0  0  0  0  0  0
   -7.9981   -1.4246  -21.0948 N   0  0  0  0  0  0  0  0  0  0  0  0
   -7.2804   -0.9032  -19.9950 C   0  0  0  0  0  0  0  0  0  0  0  0
   -7.6215   -1.1193  -18.6622 C   0  0  0  0  0  0  0  0  0  0  0  0
   -6.9648   -0.6164  -17.6065 N   0  0  0  0  0  0  0  0  0  0  0  0
   -5.9013    0.1342  -17.8469 C   0  0  0  0  0  0  0  0  0  0  0  0
   -5.4286    0.4546  -19.1431 C   0  0  0  0  0  0  0  0  0  0  0  0
   -4.3077    1.2890  -19.3681 C   0  0  0  0  0  0  0  0  0  0  0  0
   -3.9439    1.5535  -20.6459 C   0  0  0  0  0  0  0  0  0  0  0  0
   -2.8606    2.3508  -20.8542 F   0  0  0  0  0  0  0  0  0  0  0  0
   -6.1407   -0.0789  -20.2555 C   0  0  0  0  0  0  0  0  0  0  0  0
   -5.6872    0.2486  -21.5591 C   0  0  0  0  0  0  0  0  0  0  0  0
   -4.6035    1.0555  -21.7447 C   0  0  0  0  0  0  0  0  0  0  0  0
  -11.5341   -1.8402  -21.0536 H   0  0  0  0  0  0  0  0  0  0  0  0
  -14.4462   -3.6430  -23.6121 H   0  0  0  0  0  0  0  0  0  0  0  0
  -12.8648   -3.5144  -25.5166 H   0  0  0  0  0  0  0  0  0  0  0  0
   -8.4686   -1.8051  -25.8711 H   0  0  0  0  0  0  0  0  0  0  0  0
   -8.6544    0.1279  -24.3003 H   0  0  0  0  0  0  0  0  0  0  0  0
  -10.4221   -0.0915  -24.5319 H   0  0  0  0  0  0  0  0  0  0  0  0
   -9.0346   -3.5875  -23.6244 H   0  0  0  0  0  0  0  0  0  0  0  0
   -7.6183   -2.4827  -23.6227 H   0  0  0  0  0  0  0  0  0  0  0  0
   -7.6215   -2.2419  -21.5311 H   0  0  0  0  0  0  0  0  0  0  0  0
   -8.4823   -1.7404  -18.4632 H   0  0  0  0  0  0  0  0  0  0  0  0
   -5.3591    0.5277  -16.9999 H   0  0  0  0  0  0  0  0  0  0  0  0
   -3.7546    1.7057  -18.5392 H   0  0  0  0  0  0  0  0  0  0  0  0
   -6.2084   -0.1473  -22.4182 H   0  0  0  0  0  0  0  0  0  0  0  0
   -4.2678    1.3000  -22.7417 H   0  0  0  0  0  0  0  0  0  0  0  0
  1  2  1  0
  2  3  2  0
  2  4  1  0
  3 11  1  0
  3 27  1  0
  4  5  2  0
  4 28  1  0
  5  6  1  0
  5 29  1  0
  6  7  1  0
  6 11  2  0
  7  8  1  0
  8  9  1  0
  8 10  1  0
  8 30  1  6
  9 12  1  0
  9 31  1  1
  9 32  1  0
 10 12  1  0
 10 33  1  6
 10 34  1  0
 11 12  1  0
 12 13  1  1
 13 14  2  0
 13 15  1  0
 15 16  1  0
 15 35  1  0
 16 17  2  0
 16 24  1  0
 17 18  1  0
 17 36  1  0
 18 19  2  0
 19 20  1  0
 19 37  1  0
 20 21  2  0
 20 24  1  0
 21 22  1  0
 21 38  1  0
 22 23  1  0
 22 26  2  0
 24 25  2  0
 25 26  1  0
 25 39  1  0
 26 40  1  0
M  END
$$$$
