LIG(A-305)
     RDKit          3D

 43 45  0  0  1  0  0  0  0  0999 V2000
   14.0335    6.9568   21.5304 O   0  0  0  0  0  0  0  0  0  0  0  0
   13.5124    5.8929   21.8515 C   0  0  0  0  0  0  0  0  0  0  0  0
   13.3420    4.5269   21.2046 C   0  0  1  0  0  0  0  0  0  0  0  0
   12.8745    5.5090   22.9717 N   0  0  0  0  0  0  0  0  0  0  0  0
   12.5002    4.1961   22.4438 C   0  0  2  0  0  0  0  0  0  0  0  0
   13.1171    3.1020   23.1617 O   0  0  0  0  0  0  0  0  0  0  0  0
   12.6498    1.8361   22.8708 C   0  0  0  0  0  0  0  0  0  0  0  0
   13.5195    0.8219   22.4936 C   0  0  0  0  0  0  0  0  0  0  0  0
   12.9872   -0.4200   22.2057 C   0  0  0  0  0  0  0  0  0  0  0  0
   14.0559   -1.7042   21.7065 Cl  0  0  0  0  0  0  0  0  0  0  0  0
   11.6312   -0.6687   22.2870 C   0  0  0  0  0  0  0  0  0  0  0  0
   11.2858    1.6074   22.9620 C   0  0  0  0  0  0  0  0  0  0  0  0
   10.7635    0.3574   22.6532 C   0  0  0  0  0  0  0  0  0  0  0  0
    9.2564    0.1387   22.6585 C   0  0  2  0  0  0  0  0  0  0  0  0
    8.7932   -1.2692   23.0716 C   0  0  1  0  0  0  0  0  0  0  0  0
    8.5414    0.9699   21.5876 C   0  0  0  0  0  0  0  0  0  0  0  0
    8.4536    2.1919   21.6806 O   0  0  0  0  0  0  0  0  0  0  0  0
    8.0680    0.2699   20.5177 N   0  0  0  0  0  0  0  0  0  0  0  0
    6.9079    0.4182   19.7079 C   0  0  0  0  0  0  0  0  0  0  0  0
    5.7811    1.1524   20.1461 C   0  0  0  0  0  0  0  0  0  0  0  0
    5.3964    1.2405   21.6012 C   0  0  1  0  0  0  0  0  0  0  0  0
    4.9020    1.6145   19.1743 C   0  0  0  0  0  0  0  0  0  0  0  0
    5.1187    1.2955   17.8502 C   0  0  0  0  0  0  0  0  0  0  0  0
    6.1305    0.5313   17.4301 N   0  0  0  0  0  0  0  0  0  0  0  0
    6.9976    0.1011   18.3529 C   0  0  0  0  0  0  0  0  0  0  0  0
   12.7932    4.5252   20.2513 H   0  0  0  0  0  0  0  0  0  0  0  0
   14.2668    3.9411   21.0964 H   0  0  0  0  0  0  0  0  0  0  0  0
   12.7137    5.9591   23.8501 H   0  0  0  0  0  0  0  0  0  0  0  0
   11.4285    4.0712   22.2297 H   0  0  0  0  0  0  0  0  0  0  0  0
   14.5829    0.9989   22.4271 H   0  0  0  0  0  0  0  0  0  0  0  0
   11.2457   -1.6535   22.0679 H   0  0  0  0  0  0  0  0  0  0  0  0
   10.6265    2.4037   23.2745 H   0  0  0  0  0  0  0  0  0  0  0  0
    8.9802    0.7052   23.5600 H   0  0  0  0  0  0  0  0  0  0  0  0
    7.6947   -1.3178   23.0415 H   0  0  0  0  0  0  0  0  0  0  0  0
    9.2123   -2.0116   22.3764 H   0  0  0  0  0  0  0  0  0  0  0  0
    9.1419   -1.4849   24.0923 H   0  0  0  0  0  0  0  0  0  0  0  0
    8.6502   -0.4978   20.2498 H   0  0  0  0  0  0  0  0  0  0  0  0
    6.1122    0.6641   22.2058 H   0  0  0  0  0  0  0  0  0  0  0  0
    5.4104    2.2929   21.9210 H   0  0  0  0  0  0  0  0  0  0  0  0
    4.3857    0.8289   21.7386 H   0  0  0  0  0  0  0  0  0  0  0  0
    4.0532    2.2207   19.4545 H   0  0  0  0  0  0  0  0  0  0  0  0
    4.4326    1.6849   17.1126 H   0  0  0  0  0  0  0  0  0  0  0  0
    7.8141   -0.5278   18.0302 H   0  0  0  0  0  0  0  0  0  0  0  0
  1  2  2  0
  2  3  1  0
  2  4  1  0
  3  5  1  0
  3 26  1  6
  3 27  1  0
  4  5  1  0
  4 28  1  0
  5  6  1  0
  5 29  1  6
  6  7  1  0
  7  8  2  0
  7 12  1  0
  8  9  1  0
  8 30  1  0
  9 10  1  0
  9 11  2  0
 11 13  1  0
 11 31  1  0
 12 13  2  0
 12 32  1  0
 13 14  1  0
 14 15  1  0
 14 16  1  0
 14 33  1  1
 15 34  1  1
 15 35  1  0
 15 36  1  0
 16 17  2  0
 16 18  1  0
 18 19  1  0
 18 37  1  0
 19 20  2  0
 19 25  1  0
 20 21  1  0
 20 22  1  0
 21 38  1  1
 21 39  1  0
 21 40  1  0
 22 23  2  0
 22 41  1  0
 23 24  1  0
 23 42  1  0
 24 25  2  0
 25 43  1  0
M  END
$$$$
