LIG(A-306)
     RDKit          3D

 51 54  0  0  1  0  0  0  0  0999 V2000
   14.2015   -1.5846   21.0192 Cl  0  0  0  0  0  0  0  0  0  0  0  0
   13.2519   -0.7241   22.2016 C   0  0  0  0  0  0  0  0  0  0  0  0
   13.8835    0.1557   23.0635 C   0  0  0  0  0  0  0  0  0  0  0  0
   13.1274    0.8793   23.9677 C   0  0  0  0  0  0  0  0  0  0  0  0
   11.8794   -0.9044   22.2140 C   0  0  0  0  0  0  0  0  0  0  0  0
   11.1042   -0.1639   23.1040 C   0  0  0  0  0  0  0  0  0  0  0  0
   11.7487    0.7220   23.9749 C   0  0  0  0  0  0  0  0  0  0  0  0
   11.0655    1.5007   24.8739 O   0  0  0  0  0  0  0  0  0  0  0  0
    9.8618    0.8852   25.3654 C   0  0  1  0  0  0  0  0  0  0  0  0
    8.9081    0.5153   24.2449 C   0  0  1  0  0  0  0  0  0  0  0  0
    9.5945   -0.2985   23.1281 C   0  0  2  0  0  0  0  0  0  0  0  0
    9.2110   -1.6730   23.0128 O   0  0  0  0  0  0  0  0  0  0  0  0
    9.3946   -2.4999   24.1649 C   0  0  1  0  0  0  0  0  0  0  0  0
    8.9655    0.3036   21.8339 C   0  0  0  0  0  0  0  0  0  0  0  0
    9.4633    1.2842   21.2933 O   0  0  0  0  0  0  0  0  0  0  0  0
    7.8322   -0.2984   21.3905 N   0  0  0  0  0  0  0  0  0  0  0  0
    7.0796    0.0882   20.2563 C   0  0  0  0  0  0  0  0  0  0  0  0
    7.5056   -0.1122   18.9424 C   0  0  0  0  0  0  0  0  0  0  0  0
    6.8838    0.3579   17.8508 N   0  0  0  0  0  0  0  0  0  0  0  0
    5.7710    1.0580   18.0310 C   0  0  0  0  0  0  0  0  0  0  0  0
    5.1979    1.3329   19.2974 C   0  0  0  0  0  0  0  0  0  0  0  0
    5.8677    0.8282   20.4502 C   0  0  0  0  0  0  0  0  0  0  0  0
    5.2847    1.0720   21.7238 C   0  0  0  0  0  0  0  0  0  0  0  0
    4.1089    1.7558   21.8460 C   0  0  0  0  0  0  0  0  0  0  0  0
    3.9921    2.0497   19.4575 C   0  0  0  0  0  0  0  0  0  0  0  0
    3.4642    2.2276   20.7094 C   0  0  0  0  0  0  0  0  0  0  0  0
    1.8812    2.9914   20.8551 S   0  0  1  0  0  0  0  0  0  0  0  0
    1.5105    3.5012   19.5684 O   0  0  0  0  0  0  0  0  0  0  0  0
    1.0093    2.0745   21.5213 O   0  0  0  0  0  0  0  0  0  0  0  0
    2.0438    4.2666   21.8218 N   0  0  0  0  0  0  0  0  0  0  0  0
    2.7991    5.4252   21.3544 C   0  0  1  0  0  0  0  0  0  0  0  0
   14.9562    0.2760   23.0303 H   0  0  0  0  0  0  0  0  0  0  0  0
   13.6039    1.5582   24.6593 H   0  0  0  0  0  0  0  0  0  0  0  0
   11.4149   -1.6106   21.5417 H   0  0  0  0  0  0  0  0  0  0  0  0
   10.1307   -0.0274   25.9174 H   0  0  0  0  0  0  0  0  0  0  0  0
    9.3560    1.5882   26.0435 H   0  0  0  0  0  0  0  0  0  0  0  0
    8.0870   -0.0844   24.6644 H   0  0  0  0  0  0  0  0  0  0  0  0
    8.5014    1.4396   23.8086 H   0  0  0  0  0  0  0  0  0  0  0  0
    9.0614   -3.5237   23.9390 H   0  0  0  0  0  0  0  0  0  0  0  0
   10.4594   -2.5134   24.4405 H   0  0  0  0  0  0  0  0  0  0  0  0
    8.8043   -2.0986   25.0019 H   0  0  0  0  0  0  0  0  0  0  0  0
    7.4999   -1.0845   21.9115 H   0  0  0  0  0  0  0  0  0  0  0  0
    8.4054   -0.6906   18.7931 H   0  0  0  0  0  0  0  0  0  0  0  0
    5.2697    1.4434   17.1555 H   0  0  0  0  0  0  0  0  0  0  0  0
    5.7812    0.7095   22.6117 H   0  0  0  0  0  0  0  0  0  0  0  0
    3.6819    1.9291   22.8227 H   0  0  0  0  0  0  0  0  0  0  0  0
    3.4866    2.4572   18.5945 H   0  0  0  0  0  0  0  0  0  0  0  0
    2.1060    4.0691   22.8002 H   0  0  0  0  0  0  0  0  0  0  0  0
    2.8084    6.1977   22.1374 H   0  0  0  0  0  0  0  0  0  0  0  0
    3.8316    5.1219   21.1264 H   0  0  0  0  0  0  0  0  0  0  0  0
    2.3266    5.8289   20.4468 H   0  0  0  0  0  0  0  0  0  0  0  0
  1  2  1  0
  2  3  2  0
  2  5  1  0
  3  4  1  0
  3 32  1  0
  4  7  2  0
  4 33  1  0
  5  6  2  0
  5 34  1  0
  6  7  1  0
  6 11  1  0
  7  8  1  0
  8  9  1  0
  9 10  1  0
  9 35  1  1
  9 36  1  0
 10 11  1  0
 10 37  1  1
 10 38  1  0
 11 12  1  1
 11 14  1  0
 12 13  1  0
 13 39  1  6
 13 40  1  0
 13 41  1  0
 14 15  2  0
 14 16  1  0
 16 17  1  0
 16 42  1  0
 17 18  2  0
 17 22  1  0
 18 19  1  0
 18 43  1  0
 19 20  2  0
 20 21  1  0
 20 44  1  0
 21 22  2  0
 21 25  1  0
 22 23  1  0
 23 24  2  0
 23 45  1  0
 24 26  1  0
 24 46  1  0
 25 26  2  0
 25 47  1  0
 26 27  1  0
 27 28  2  0
 27 29  2  0
 27 30  1  1
 30 31  1  0
 30 48  1  0
 31 49  1  1
 31 50  1  0
 31 51  1  0
M  END
$$$$
