LIG(A-305)
     RDKit          3D

 35 37  0  0  0  0  0  0  0  0999 V2000
    6.5382    0.6273   17.4081 N   0  0  0  0  0  0  0  0  0  0  0  0
    9.6323   -0.6444   23.4011 N   0  0  0  0  0  0  0  0  0  0  0  0
    5.4102    0.7494   19.9831 C   0  0  0  0  0  0  0  0  0  0  0  0
   12.9443    0.5437   23.9330 C   0  0  0  0  0  0  0  0  0  0  0  0
    9.3923    0.1367   24.5091 C   0  0  0  0  0  0  0  0  0  0  0  0
    4.8482    1.4324   18.9111 C   0  0  0  0  0  0  0  0  0  0  0  0
    8.2453   -0.3985   21.4161 C   0  0  0  0  0  0  0  0  0  0  0  0
    6.5433   -0.0386   19.7191 C   0  0  0  0  0  0  0  0  0  0  0  0
    7.0662   -0.0636   18.4241 C   0  0  0  0  0  0  0  0  0  0  0  0
   11.5803    0.2757   24.0520 C   0  0  0  0  0  0  0  0  0  0  0  0
   13.0743   -0.9193   22.0461 C   0  0  0  0  0  0  0  0  0  0  0  0
   10.5403    0.7097   24.9350 C   0  0  0  0  0  0  0  0  0  0  0  0
   13.6903   -0.0443   22.9280 C   0  0  0  0  0  0  0  0  0  0  0  0
   11.7203   -1.1964   22.1091 C   0  0  0  0  0  0  0  0  0  0  0  0
    4.8923    0.9584   21.3831 C   0  0  1  0  0  0  0  0  0  0  0  0
    7.1323   -0.7775   20.7662 N   0  0  0  0  0  0  0  0  0  0  0  0
    8.9053    0.6005   21.1281 O   0  0  0  0  0  0  0  0  0  0  0  0
    8.6083   -1.2914   22.5912 C   0  0  2  0  0  0  0  0  0  0  0  0
    5.4392    1.3503   17.6631 C   0  0  0  0  0  0  0  0  0  0  0  0
   10.9853   -0.5843   23.1141 C   0  0  0  0  0  0  0  0  0  0  0  0
   14.0393   -1.7324   20.8511 Cl  0  0  0  0  0  0  0  0  0  0  0  0
   13.4213    1.2157   24.6312 H   0  0  0  0  0  0  0  0  0  0  0  0
    8.4258    0.2722   24.9716 H   0  0  0  0  0  0  0  0  0  0  0  0
    3.9554    2.0235   19.0516 H   0  0  0  0  0  0  0  0  0  0  0  0
    7.9392   -0.6703   18.2341 H   0  0  0  0  0  0  0  0  0  0  0  0
   10.6518    1.3705   25.7820 H   0  0  0  0  0  0  0  0  0  0  0  0
   14.7431    0.1759   22.8309 H   0  0  0  0  0  0  0  0  0  0  0  0
   11.2524   -1.8649   21.4015 H   0  0  0  0  0  0  0  0  0  0  0  0
    4.0680    1.6865   21.3648 H   0  0  0  0  0  0  0  0  0  0  0  0
    4.5275    0.0019   21.7856 H   0  0  0  0  0  0  0  0  0  0  0  0
    5.7035    1.3392   22.0211 H   0  0  0  0  0  0  0  0  0  0  0  0
    6.6957   -1.6342   21.0409 H   0  0  0  0  0  0  0  0  0  0  0  0
    7.7136   -1.4686   23.2060 H   0  0  0  0  0  0  0  0  0  0  0  0
    8.9916   -2.2518   22.2160 H   0  0  0  0  0  0  0  0  0  0  0  0
    4.9899    1.8996   16.8490 H   0  0  0  0  0  0  0  0  0  0  0  0
  1  9  1  0
  1 19  2  0
  2  5  1  0
  2 18  1  0
  2 20  1  0
  3  6  2  0
  3  8  1  0
  3 15  1  0
  4 10  2  0
  4 13  1  0
  4 22  1  0
  5 12  2  0
  5 23  1  0
  6 19  1  0
  6 24  1  0
  7 16  1  0
  7 17  2  0
  7 18  1  0
  8  9  2  0
  8 16  1  0
  9 25  1  0
 10 12  1  0
 10 20  1  0
 11 13  2  0
 11 14  1  0
 11 21  1  0
 12 26  1  0
 13 27  1  0
 14 20  2  0
 14 28  1  0
 15 29  1  6
 15 30  1  0
 15 31  1  0
 16 32  1  0
 18 33  1  1
 18 34  1  0
 19 35  1  0
M  END
$$$$
