LIG(A-306)
     RDKit          3D

 39 42  0  0  1  0  0  0  0  0999 V2000
  -14.2458   -2.4742  -21.3204 Cl  0  0  0  0  0  0  0  0  0  0  0  0
  -13.0145   -1.7404  -22.2965 C   0  0  0  0  0  0  0  0  0  0  0  0
  -13.3389   -0.8507  -23.3117 C   0  0  0  0  0  0  0  0  0  0  0  0
  -14.9958   -0.4830  -23.6906 Cl  0  0  0  0  0  0  0  0  0  0  0  0
  -11.6916   -2.0294  -22.0251 C   0  0  0  0  0  0  0  0  0  0  0  0
  -10.6685   -1.4352  -22.7562 C   0  0  0  0  0  0  0  0  0  0  0  0
  -11.0207   -0.5561  -23.7877 C   0  0  0  0  0  0  0  0  0  0  0  0
  -12.3422   -0.2521  -24.0584 C   0  0  0  0  0  0  0  0  0  0  0  0
   -9.2125   -1.7346  -22.4631 C   0  0  1  0  0  0  0  0  0  0  0  0
   -8.3966   -1.5397  -23.7510 C   0  0  1  0  0  0  0  0  0  0  0  0
   -8.6995   -0.1879  -24.3493 C   0  0  1  0  0  0  0  0  0  0  0  0
  -10.1055   -0.0026  -24.6550 O   0  0  0  0  0  0  0  0  0  0  0  0
   -8.7141   -0.8161  -21.3445 C   0  0  0  0  0  0  0  0  0  0  0  0
   -9.2625    0.2549  -21.0748 O   0  0  0  0  0  0  0  0  0  0  0  0
   -7.6161   -1.2618  -20.7024 N   0  0  0  0  0  0  0  0  0  0  0  0
   -6.8840   -0.6014  -19.6977 C   0  0  0  0  0  0  0  0  0  0  0  0
   -5.8335    0.2935  -20.0806 C   0  0  0  0  0  0  0  0  0  0  0  0
   -5.3965    0.4742  -21.4192 C   0  0  0  0  0  0  0  0  0  0  0  0
   -4.4138    1.3767  -21.7230 C   0  0  0  0  0  0  0  0  0  0  0  0
   -3.8154    2.1351  -20.7239 C   0  0  0  0  0  0  0  0  0  0  0  0
   -4.2019    1.9949  -19.4201 C   0  0  0  0  0  0  0  0  0  0  0  0
   -5.2187    1.0730  -19.0633 C   0  0  0  0  0  0  0  0  0  0  0  0
   -5.6815    0.9039  -17.7375 C   0  0  0  0  0  0  0  0  0  0  0  0
   -6.6504    0.0732  -17.3835 N   0  0  0  0  0  0  0  0  0  0  0  0
   -7.2233   -0.6573  -18.3476 C   0  0  0  0  0  0  0  0  0  0  0  0
  -11.4486   -2.7251  -21.2355 H   0  0  0  0  0  0  0  0  0  0  0  0
  -12.5925    0.4451  -24.8444 H   0  0  0  0  0  0  0  0  0  0  0  0
   -9.1174   -2.7805  -22.1361 H   0  0  0  0  0  0  0  0  0  0  0  0
   -7.3238   -1.6030  -23.5166 H   0  0  0  0  0  0  0  0  0  0  0  0
   -8.6612   -2.3260  -24.4733 H   0  0  0  0  0  0  0  0  0  0  0  0
   -8.3916    0.5886  -23.6336 H   0  0  0  0  0  0  0  0  0  0  0  0
   -8.1219   -0.0794  -25.2791 H   0  0  0  0  0  0  0  0  0  0  0  0
   -7.2832   -2.1658  -20.9705 H   0  0  0  0  0  0  0  0  0  0  0  0
   -5.8461   -0.1090  -22.2092 H   0  0  0  0  0  0  0  0  0  0  0  0
   -4.1002    1.5007  -22.7490 H   0  0  0  0  0  0  0  0  0  0  0  0
   -3.0389    2.8408  -20.9796 H   0  0  0  0  0  0  0  0  0  0  0  0
   -3.7284    2.5919  -18.6547 H   0  0  0  0  0  0  0  0  0  0  0  0
   -5.2134    1.4916  -16.9617 H   0  0  0  0  0  0  0  0  0  0  0  0
   -8.0071   -1.3413  -18.0574 H   0  0  0  0  0  0  0  0  0  0  0  0
  1  2  1  0
  2  3  2  0
  2  5  1  0
  3  4  1  0
  3  8  1  0
  5  6  2  0
  5 26  1  0
  6  7  1  0
  6  9  1  0
  7  8  2  0
  7 12  1  0
  8 27  1  0
  9 10  1  0
  9 13  1  0
  9 28  1  1
 10 11  1  0
 10 29  1  1
 10 30  1  0
 11 12  1  0
 11 31  1  1
 11 32  1  0
 13 14  2  0
 13 15  1  0
 15 16  1  0
 15 33  1  0
 16 17  2  0
 16 25  1  0
 17 18  1  0
 17 22  1  0
 18 19  2  0
 18 34  1  0
 19 20  1  0
 19 35  1  0
 20 21  2  0
 20 36  1  0
 21 22  1  0
 21 37  1  0
 22 23  2  0
 23 24  1  0
 23 38  1  0
 24 25  2  0
 25 39  1  0
M  END
$$$$
