LIG(A-305)
     RDKit          3D

 39 41  0  0  1  0  0  0  0  0999 V2000
    7.2517   -2.8586   21.2803 N   0  0  0  0  0  0  0  0  0  0  0  0
   12.4937   -0.8215   22.4140 C   0  0  0  0  0  0  0  0  0  0  0  0
    7.3109   -5.0066   24.2804 C   0  0  0  0  0  0  0  0  0  0  0  0
    8.3937   -1.9666   21.5482 C   0  0  1  0  0  0  0  0  0  0  0  0
   12.6277    0.2125   23.3340 C   0  0  0  0  0  0  0  0  0  0  0  0
   11.2727   -1.4805   22.3361 C   0  0  0  0  0  0  0  0  0  0  0  0
    6.7597   -3.2007   20.0683 C   0  0  0  0  0  0  0  0  0  0  0  0
   10.2097   -1.1405   23.1661 C   0  0  0  0  0  0  0  0  0  0  0  0
   10.3838   -0.1255   24.0971 C   0  0  0  0  0  0  0  0  0  0  0  0
    7.5328   -3.8466   23.5373 C   0  0  0  0  0  0  0  0  0  0  0  0
    9.3619   -4.6715   25.4623 C   0  0  0  0  0  0  0  0  0  0  0  0
    7.5546   -2.7847   18.8563 C   0  0  1  0  0  0  0  0  0  0  0  0
    6.5658   -3.3296   22.5053 C   0  0  1  0  0  0  0  0  0  0  0  0
    8.2209   -5.4075   25.2443 C   0  0  0  0  0  0  0  0  0  0  0  0
    9.5948   -3.5205   24.7262 C   0  0  0  0  0  0  0  0  0  0  0  0
   13.6677   -1.2735   21.5820 C   0  0  1  0  0  0  0  0  0  0  0  0
    5.6967   -3.7687   19.9484 O   0  0  0  0  0  0  0  0  0  0  0  0
    8.8458   -1.7996   23.0062 C   0  0  2  0  0  0  0  0  0  0  0  0
   11.5848    0.5535   24.1780 C   0  0  0  0  0  0  0  0  0  0  0  0
    8.6778   -3.0915   23.7682 C   0  0  0  0  0  0  0  0  0  0  0  0
    6.4234   -5.5958   24.1026 H   0  0  0  0  0  0  0  0  0  0  0  0
    9.2527   -2.3541   20.9808 H   0  0  0  0  0  0  0  0  0  0  0  0
    8.1257   -0.9685   21.1715 H   0  0  0  0  0  0  0  0  0  0  0  0
   13.5585    0.7572   23.3909 H   0  0  0  0  0  0  0  0  0  0  0  0
   11.1464   -2.2745   21.6149 H   0  0  0  0  0  0  0  0  0  0  0  0
    9.5746    0.1355   24.7630 H   0  0  0  0  0  0  0  0  0  0  0  0
   10.0763   -4.9903   26.2068 H   0  0  0  0  0  0  0  0  0  0  0  0
    7.0146   -3.0790   17.9442 H   0  0  0  0  0  0  0  0  0  0  0  0
    7.6919   -1.6933   18.8648 H   0  0  0  0  0  0  0  0  0  0  0  0
    8.5375   -3.2781   18.8756 H   0  0  0  0  0  0  0  0  0  0  0  0
    6.0001   -2.4916   22.9386 H   0  0  0  0  0  0  0  0  0  0  0  0
    5.8720   -4.1388   22.2337 H   0  0  0  0  0  0  0  0  0  0  0  0
    8.0343   -6.2987   25.8252 H   0  0  0  0  0  0  0  0  0  0  0  0
   10.4960   -2.9502   24.8967 H   0  0  0  0  0  0  0  0  0  0  0  0
   14.4744   -1.6216   22.2438 H   0  0  0  0  0  0  0  0  0  0  0  0
   13.3543   -2.0960   20.9223 H   0  0  0  0  0  0  0  0  0  0  0  0
   14.0305   -0.4326   20.9726 H   0  0  0  0  0  0  0  0  0  0  0  0
    8.1273   -1.0973   23.4540 H   0  0  0  0  0  0  0  0  0  0  0  0
   11.7094    1.3485   24.8983 H   0  0  0  0  0  0  0  0  0  0  0  0
  1  4  1  0
  1  7  1  0
  1 13  1  0
  2  5  2  0
  2  6  1  0
  2 16  1  0
  3 10  2  0
  3 14  1  0
  3 21  1  0
  4 18  1  0
  4 22  1  6
  4 23  1  0
  5 19  1  0
  5 24  1  0
  6  8  2  0
  6 25  1  0
  7 12  1  0
  7 17  2  0
  8  9  1  0
  8 18  1  0
  9 19  2  0
  9 26  1  0
 10 13  1  0
 10 20  1  0
 11 14  2  0
 11 15  1  0
 11 27  1  0
 12 28  1  6
 12 29  1  0
 12 30  1  0
 13 31  1  1
 13 32  1  0
 14 33  1  0
 15 20  2  0
 15 34  1  0
 16 35  1  1
 16 36  1  0
 16 37  1  0
 18 20  1  0
 18 38  1  1
 19 39  1  0
M  END
$$$$
