LIG(A-305)
     RDKit          3D

 40 41  0  0  0  0  0  0  0  0999 V2000
    5.8440   -5.4416   24.2824 N   0  0  0  0  0  0  0  0  0  0  0  0
    0.7461   -1.4695   26.1146 C   0  0  1  0  0  0  0  0  0  0  0  0
    4.6261   -6.9165   25.8325 O   0  0  0  0  0  0  0  0  0  0  0  0
    1.8221   -2.5005   26.0216 C   0  0  0  0  0  0  0  0  0  0  0  0
    5.8919   -6.0016   21.9234 C   0  0  1  0  0  0  0  0  0  0  0  0
    5.0009   -5.7606   23.1165 C   0  0  2  0  0  0  0  0  0  0  0  0
    6.8498   -4.1857   20.5183 C   0  0  0  0  0  0  0  0  0  0  0  0
    8.1448   -3.4637   20.2463 C   0  0  1  0  0  0  0  0  0  0  0  0
    3.1301   -2.1905   26.3205 C   0  0  0  0  0  0  0  0  0  0  0  0
    4.1251   -3.1375   26.2385 C   0  0  0  0  0  0  0  0  0  0  0  0
    3.8241   -4.4365   25.8475 C   0  0  0  0  0  0  0  0  0  0  0  0
    2.4981   -4.7915   25.5336 C   0  0  0  0  0  0  0  0  0  0  0  0
    2.0310   -6.1525   25.0956 C   0  0  1  0  0  0  0  0  0  0  0  0
    1.5321   -3.7955   25.6346 C   0  0  0  0  0  0  0  0  0  0  0  0
    6.6640   -4.2446   24.0464 C   0  0  1  0  0  0  0  0  0  0  0  0
    7.5629   -4.5076   22.8713 C   0  0  1  0  0  0  0  0  0  0  0  0
    6.7638   -4.8486   21.6934 N   0  0  0  0  0  0  0  0  0  0  0  0
    6.1501   -5.1795   26.7074 O   0  0  0  0  0  0  0  0  0  0  0  0
    5.9637   -4.2047   19.6724 O   0  0  0  0  0  0  0  0  0  0  0  0
    5.1591   -5.5926   25.7625 S   0  0  2  0  0  0  0  0  0  0  0  0
    1.1813   -0.5128   26.4390 H   0  0  0  0  0  0  0  0  0  0  0  0
    0.2743   -1.3421   25.1291 H   0  0  0  0  0  0  0  0  0  0  0  0
   -0.0104   -1.7941   26.8441 H   0  0  0  0  0  0  0  0  0  0  0  0
    6.5106   -6.8923   22.1077 H   0  0  0  0  0  0  0  0  0  0  0  0
    5.2675   -6.1667   21.0330 H   0  0  0  0  0  0  0  0  0  0  0  0
    4.3241   -4.9188   22.9083 H   0  0  0  0  0  0  0  0  0  0  0  0
    4.4091   -6.6642   23.3244 H   0  0  0  0  0  0  0  0  0  0  0  0
    8.1118   -3.0166   19.2418 H   0  0  0  0  0  0  0  0  0  0  0  0
    8.2870   -2.6712   20.9957 H   0  0  0  0  0  0  0  0  0  0  0  0
    8.9807   -4.1764   20.3030 H   0  0  0  0  0  0  0  0  0  0  0  0
    3.3798   -1.1849   26.6252 H   0  0  0  0  0  0  0  0  0  0  0  0
    5.1435   -2.8702   26.4788 H   0  0  0  0  0  0  0  0  0  0  0  0
    2.2608   -6.8894   25.8794 H   0  0  0  0  0  0  0  0  0  0  0  0
    0.9451   -6.1290   24.9217 H   0  0  0  0  0  0  0  0  0  0  0  0
    2.5454   -6.4347   24.1652 H   0  0  0  0  0  0  0  0  0  0  0  0
    0.5081   -4.0457   25.3999 H   0  0  0  0  0  0  0  0  0  0  0  0
    6.0125   -3.3850   23.8303 H   0  0  0  0  0  0  0  0  0  0  0  0
    7.2715   -4.0292   24.9376 H   0  0  0  0  0  0  0  0  0  0  0  0
    8.1575   -3.6068   22.6593 H   0  0  0  0  0  0  0  0  0  0  0  0
    8.2366   -5.3442   23.1086 H   0  0  0  0  0  0  0  0  0  0  0  0
  1  6  1  0
  1 15  1  0
 20  1  1  6
  2  4  1  0
  2 21  1  1
  2 22  1  0
  2 23  1  0
  3 20  2  0
  4  9  2  0
  4 14  1  0
  5  6  1  0
  5 17  1  0
  5 24  1  1
  5 25  1  0
  6 26  1  6
  6 27  1  0
  7  8  1  0
  7 17  1  0
  7 19  2  0
  8 28  1  6
  8 29  1  0
  8 30  1  0
  9 10  1  0
  9 31  1  0
 10 11  2  0
 10 32  1  0
 11 12  1  0
 11 20  1  0
 12 13  1  0
 12 14  2  0
 13 33  1  1
 13 34  1  0
 13 35  1  0
 14 36  1  0
 15 16  1  0
 15 37  1  6
 15 38  1  0
 16 17  1  0
 16 39  1  6
 16 40  1  0
 18 20  2  0
M  END
$$$$
