LIG(A-306)
     RDKit          3D

 45 47  0  0  1  0  0  0  0  0999 V2000
  -14.3729   -2.4857  -21.9901 Cl  0  0  0  0  0  0  0  0  0  0  0  0
  -12.9806   -1.6210  -22.5539 C   0  0  0  0  0  0  0  0  0  0  0  0
  -13.1153   -0.5497  -23.4231 C   0  0  0  0  0  0  0  0  0  0  0  0
  -14.6763    0.0962  -23.8008 Cl  0  0  0  0  0  0  0  0  0  0  0  0
  -11.9876    0.0435  -23.9655 C   0  0  0  0  0  0  0  0  0  0  0  0
  -10.7342   -0.4166  -23.6127 C   0  0  0  0  0  0  0  0  0  0  0  0
  -11.7221   -2.0592  -22.1810 C   0  0  0  0  0  0  0  0  0  0  0  0
  -10.5834   -1.4551  -22.7034 C   0  0  0  0  0  0  0  0  0  0  0  0
   -9.2138   -1.8928  -22.2487 C   0  0  1  0  0  0  0  0  0  0  0  0
   -8.4654   -2.3787  -23.3664 O   0  0  0  0  0  0  0  0  0  0  0  0
   -8.5079   -3.8031  -23.5112 C   0  0  1  0  0  0  0  0  0  0  0  0
   -7.3923   -4.4374  -22.7348 C   0  0  1  0  0  0  0  0  0  0  0  0
   -7.2488   -5.8411  -22.9268 O   0  0  0  0  0  0  0  0  0  0  0  0
   -6.1041   -6.3480  -22.2511 C   0  0  1  0  0  0  0  0  0  0  0  0
   -8.5202   -0.8042  -21.4219 C   0  0  0  0  0  0  0  0  0  0  0  0
   -8.7288    0.3860  -21.6475 O   0  0  0  0  0  0  0  0  0  0  0  0
   -7.8429   -1.2545  -20.3503 N   0  0  0  0  0  0  0  0  0  0  0  0
   -6.9113   -0.6145  -19.5133 C   0  0  0  0  0  0  0  0  0  0  0  0
   -6.0166    0.3971  -19.9960 C   0  0  0  0  0  0  0  0  0  0  0  0
   -5.6270    0.5299  -21.3550 C   0  0  0  0  0  0  0  0  0  0  0  0
   -4.6654    1.4269  -21.7302 C   0  0  0  0  0  0  0  0  0  0  0  0
   -4.0434    2.2293  -20.7903 C   0  0  0  0  0  0  0  0  0  0  0  0
   -4.3858    2.1465  -19.4721 C   0  0  0  0  0  0  0  0  0  0  0  0
   -5.3774    1.2313  -19.0379 C   0  0  0  0  0  0  0  0  0  0  0  0
   -5.6901    1.0264  -17.6762 C   0  0  0  0  0  0  0  0  0  0  0  0
   -6.5017    0.0867  -17.2304 N   0  0  0  0  0  0  0  0  0  0  0  0
   -7.0717   -0.7149  -18.1344 C   0  0  0  0  0  0  0  0  0  0  0  0
  -12.0880    0.8630  -24.6618 H   0  0  0  0  0  0  0  0  0  0  0  0
   -9.8580    0.0382  -24.0507 H   0  0  0  0  0  0  0  0  0  0  0  0
  -11.6235   -2.8751  -21.4803 H   0  0  0  0  0  0  0  0  0  0  0  0
   -9.3702   -2.7412  -21.5662 H   0  0  0  0  0  0  0  0  0  0  0  0
   -9.4712   -4.1779  -23.1347 H   0  0  0  0  0  0  0  0  0  0  0  0
   -8.4037   -4.0632  -24.5749 H   0  0  0  0  0  0  0  0  0  0  0  0
   -6.4505   -3.9538  -23.0335 H   0  0  0  0  0  0  0  0  0  0  0  0
   -7.5745   -4.2559  -21.6653 H   0  0  0  0  0  0  0  0  0  0  0  0
   -6.0267   -7.4319  -22.4222 H   0  0  0  0  0  0  0  0  0  0  0  0
   -5.2014   -5.8509  -22.6356 H   0  0  0  0  0  0  0  0  0  0  0  0
   -6.1988   -6.1530  -21.1727 H   0  0  0  0  0  0  0  0  0  0  0  0
   -8.0342   -2.2056  -20.1077 H   0  0  0  0  0  0  0  0  0  0  0  0
   -6.0981   -0.0881  -22.1051 H   0  0  0  0  0  0  0  0  0  0  0  0
   -4.3888    1.5100  -22.7709 H   0  0  0  0  0  0  0  0  0  0  0  0
   -3.2804    2.9269  -21.1026 H   0  0  0  0  0  0  0  0  0  0  0  0
   -3.8962    2.7851  -18.7518 H   0  0  0  0  0  0  0  0  0  0  0  0
   -5.2339    1.6834  -16.9506 H   0  0  0  0  0  0  0  0  0  0  0  0
   -7.7088   -1.5050  -17.7653 H   0  0  0  0  0  0  0  0  0  0  0  0
  1  2  1  0
  2  3  2  0
  2  7  1  0
  3  4  1  0
  3  5  1  0
  5  6  2  0
  5 28  1  0
  6  8  1  0
  6 29  1  0
  7  8  2  0
  7 30  1  0
  8  9  1  0
  9 10  1  0
  9 15  1  0
  9 31  1  1
 10 11  1  0
 11 12  1  0
 11 32  1  1
 11 33  1  0
 12 13  1  0
 12 34  1  6
 12 35  1  0
 13 14  1  0
 14 36  1  1
 14 37  1  0
 14 38  1  0
 15 16  2  0
 15 17  1  0
 17 18  1  0
 17 39  1  0
 18 19  2  0
 18 27  1  0
 19 20  1  0
 19 24  1  0
 20 21  2  0
 20 40  1  0
 21 22  1  0
 21 41  1  0
 22 23  2  0
 22 42  1  0
 23 24  1  0
 23 43  1  0
 24 25  2  0
 25 26  1  0
 25 44  1  0
 26 27  2  0
 27 45  1  0
M  END
$$$$
