LIG(A-306)
     RDKit          3D

 45 47  0  0  0  0  0  0  0  0999 V2000
    9.0281    0.7930   21.4183 O   0  0  0  0  0  0  0  0  0  0  0  0
    8.5122   -0.2931   21.6663 C   0  0  0  0  0  0  0  0  0  0  0  0
    7.3873   -0.7412   21.0623 N   0  0  0  0  0  0  0  0  0  0  0  0
    6.6741   -0.1493   19.9974 C   0  0  0  0  0  0  0  0  0  0  0  0
    5.5561    0.6906   20.3005 C   0  0  0  0  0  0  0  0  0  0  0  0
    5.0751    0.9214   21.6145 C   0  0  0  0  0  0  0  0  0  0  0  0
    4.0110    1.7493   21.8396 C   0  0  0  0  0  0  0  0  0  0  0  0
    3.3769    2.3872   20.7816 C   0  0  0  0  0  0  0  0  0  0  0  0
    3.7968    2.1944   19.4976 C   0  0  0  0  0  0  0  0  0  0  0  0
    4.8909    1.3385   19.2195 C   0  0  0  0  0  0  0  0  0  0  0  0
    5.3679    1.0896   17.9085 C   0  0  0  0  0  0  0  0  0  0  0  0
    6.4000    0.3038   17.6274 N   0  0  0  0  0  0  0  0  0  0  0  0
    7.0251   -0.2902   18.6534 C   0  0  0  0  0  0  0  0  0  0  0  0
    9.1104   -1.2511   22.6792 C   0  0  1  0  0  0  0  0  0  0  0  0
   10.5084   -0.8019   23.0522 C   0  0  0  0  0  0  0  0  0  0  0  0
   11.5744   -1.1997   22.2441 C   0  0  0  0  0  0  0  0  0  0  0  0
   12.8503   -0.7416   22.5091 C   0  0  0  0  0  0  0  0  0  0  0  0
   14.1513   -1.1834   21.4370 Cl  0  0  0  0  0  0  0  0  0  0  0  0
   13.1103    0.0844   23.5761 C   0  0  0  0  0  0  0  0  0  0  0  0
   12.0683    0.4602   24.4002 C   0  0  0  0  0  0  0  0  0  0  0  0
   10.7633    0.0311   24.1592 C   0  0  0  0  0  0  0  0  0  0  0  0
    9.6423    0.4599   25.0803 C   0  0  1  0  0  0  0  0  0  0  0  0
   10.0912    1.3509   26.1623 N   0  0  0  0  0  0  0  0  0  0  0  0
    9.9843    0.9948   27.7403 S   0  0  1  0  0  0  0  0  0  0  0  0
   11.3003    1.1210   28.2852 O   0  0  0  0  0  0  0  0  0  0  0  0
    8.9383    1.8056   28.2794 O   0  0  0  0  0  0  0  0  0  0  0  0
    9.4966   -0.6833   27.8762 C   0  0  1  0  0  0  0  0  0  0  0  0
    7.0142   -1.5996   21.4146 H   0  0  0  0  0  0  0  0  0  0  0  0
    5.5570    0.4357   22.4502 H   0  0  0  0  0  0  0  0  0  0  0  0
    3.6605    1.9086   22.8486 H   0  0  0  0  0  0  0  0  0  0  0  0
    2.5418    3.0435   20.9773 H   0  0  0  0  0  0  0  0  0  0  0  0
    3.2911    2.6981   18.6872 H   0  0  0  0  0  0  0  0  0  0  0  0
    4.8593    1.5699   17.0857 H   0  0  0  0  0  0  0  0  0  0  0  0
    7.8659   -0.9275   18.4225 H   0  0  0  0  0  0  0  0  0  0  0  0
    8.4805   -1.2685   23.5808 H   0  0  0  0  0  0  0  0  0  0  0  0
    9.1557   -2.2603   22.2440 H   0  0  0  0  0  0  0  0  0  0  0  0
   11.4017   -1.8658   21.4117 H   0  0  0  0  0  0  0  0  0  0  0  0
   14.1140    0.4341   23.7671 H   0  0  0  0  0  0  0  0  0  0  0  0
   12.2675    1.0990   25.2479 H   0  0  0  0  0  0  0  0  0  0  0  0
    8.8828    0.9878   24.4848 H   0  0  0  0  0  0  0  0  0  0  0  0
    9.1958   -0.4392   25.5301 H   0  0  0  0  0  0  0  0  0  0  0  0
   10.4878    2.2329   25.9077 H   0  0  0  0  0  0  0  0  0  0  0  0
    9.4147   -0.9569   28.9385 H   0  0  0  0  0  0  0  0  0  0  0  0
    8.5219   -0.8226   27.3857 H   0  0  0  0  0  0  0  0  0  0  0  0
   10.2468   -1.3236   27.3895 H   0  0  0  0  0  0  0  0  0  0  0  0
  1  2  2  0
  2  3  1  0
  2 14  1  0
  3  4  1  0
  3 28  1  0
  4  5  2  0
  4 13  1  0
  5  6  1  0
  5 10  1  0
  6  7  2  0
  6 29  1  0
  7  8  1  0
  7 30  1  0
  8  9  2  0
  8 31  1  0
  9 10  1  0
  9 32  1  0
 10 11  2  0
 11 12  1  0
 11 33  1  0
 12 13  2  0
 13 34  1  0
 14 15  1  0
 14 35  1  1
 14 36  1  0
 15 16  2  0
 15 21  1  0
 16 17  1  0
 16 37  1  0
 17 18  1  0
 17 19  2  0
 19 20  1  0
 19 38  1  0
 20 21  2  0
 20 39  1  0
 21 22  1  0
 22 23  1  0
 22 40  1  6
 22 41  1  0
 24 23  1  6
 23 42  1  0
 24 25  2  0
 24 26  2  0
 24 27  1  0
 27 43  1  1
 27 44  1  0
 27 45  1  0
M  END
$$$$
