LIG(A-305)
     RDKit          3D

 26 26  0  0  0  0  0  0  0  0999 V2000
   16.2684    2.3548  -14.6732 C   0  0  1  0  0  0  0  0  0  0  0  0
   16.8174    3.2929  -12.6462 C   0  0  0  0  0  0  0  0  0  0  0  0
   17.6745    2.4419  -11.7222 C   0  0  0  0  0  0  0  0  0  0  0  0
   18.7675    1.7629  -12.2232 C   0  0  0  0  0  0  0  0  0  0  0  0
   19.5415    0.9820  -11.3852 C   0  0  0  0  0  0  0  0  0  0  0  0
   19.2356    0.8740  -10.0442 C   0  0  0  0  0  0  0  0  0  0  0  0
   18.1456    1.5540   -9.5322 C   0  0  0  0  0  0  0  0  0  0  0  0
   16.1095    3.6619   -7.7132 C   0  0  1  0  0  0  0  0  0  0  0  0
   17.3705    2.3369  -10.3802 C   0  0  0  0  0  0  0  0  0  0  0  0
   17.8436    1.4170   -8.1142 N   0  0  0  0  0  0  0  0  0  0  0  0
   17.0814    3.2699  -14.0082 O   0  0  0  0  0  0  0  0  0  0  0  0
   15.9194    3.9579  -12.2522 O   0  0  0  0  0  0  0  0  0  0  0  0
   17.2936    2.3660   -5.7272 O   0  0  0  0  0  0  0  0  0  0  0  0
   18.6886    3.6390   -6.9842 O   0  0  0  0  0  0  0  0  0  0  0  0
   17.5186    2.7720   -7.1272 S   0  0  2  0  0  0  0  0  0  0  0  0
   16.5062    2.3651  -15.7471 H   0  0  0  0  0  0  0  0  0  0  0  0
   16.4436    1.3470  -14.2686 H   0  0  0  0  0  0  0  0  0  0  0  0
   15.2131    2.6295  -14.5287 H   0  0  0  0  0  0  0  0  0  0  0  0
   19.0179    1.8420  -13.2708 H   0  0  0  0  0  0  0  0  0  0  0  0
   20.3936    0.4515  -11.7839 H   0  0  0  0  0  0  0  0  0  0  0  0
   19.8449    0.2608   -9.3968 H   0  0  0  0  0  0  0  0  0  0  0  0
   16.2753    3.9657   -8.7573 H   0  0  0  0  0  0  0  0  0  0  0  0
   15.2195    3.0182   -7.6556 H   0  0  0  0  0  0  0  0  0  0  0  0
   15.9561    4.5561   -7.0912 H   0  0  0  0  0  0  0  0  0  0  0  0
   16.5192    2.8701   -9.9834 H   0  0  0  0  0  0  0  0  0  0  0  0
   17.3416    0.5876   -7.8690 H   0  0  0  0  0  0  0  0  0  0  0  0
  1 11  1  0
  1 16  1  6
  1 17  1  0
  1 18  1  0
  2  3  1  0
  2 11  1  0
  2 12  2  0
  3  4  2  0
  3  9  1  0
  4  5  1  0
  4 19  1  0
  5  6  2  0
  5 20  1  0
  6  7  1  0
  6 21  1  0
  7  9  2  0
  7 10  1  0
  8 15  1  0
  8 22  1  6
  8 23  1  0
  8 24  1  0
  9 25  1  0
 15 10  1  6
 10 26  1  0
 13 15  2  0
 14 15  2  0
M  END
$$$$
