LIG(A-306)
     RDKit          3D

 34 36  0  0  0  0  0  0  0  0999 V2000
    8.9018    0.8360   21.2883 O   0  0  0  0  0  0  0  0  0  0  0  0
    8.3670   -0.2351   21.5793 C   0  0  0  0  0  0  0  0  0  0  0  0
    8.9541   -1.1650   22.6253 C   0  0  1  0  0  0  0  0  0  0  0  0
   10.3671   -0.7978   23.0202 C   0  0  0  0  0  0  0  0  0  0  0  0
   10.6090    0.1032   24.0512 C   0  0  0  0  0  0  0  0  0  0  0  0
   11.8980    0.5404   24.3242 C   0  0  0  0  0  0  0  0  0  0  0  0
   12.9650    0.0846   23.5672 C   0  0  0  0  0  0  0  0  0  0  0  0
   11.4462   -1.2916   22.2942 C   0  0  0  0  0  0  0  0  0  0  0  0
   12.7221   -0.8375   22.5682 C   0  0  0  0  0  0  0  0  0  0  0  0
   14.0562   -1.4443   21.6212 Cl  0  0  0  0  0  0  0  0  0  0  0  0
    7.2260   -0.6922   21.0053 N   0  0  0  0  0  0  0  0  0  0  0  0
    6.4739   -0.1063   19.9643 C   0  0  0  0  0  0  0  0  0  0  0  0
    5.3508    0.7135   20.3093 C   0  0  0  0  0  0  0  0  0  0  0  0
    4.8708    0.8785   21.6353 C   0  0  0  0  0  0  0  0  0  0  0  0
    3.8167    1.7073   21.9034 C   0  0  0  0  0  0  0  0  0  0  0  0
    3.1946    2.4163   20.8824 C   0  0  0  0  0  0  0  0  0  0  0  0
    3.6126    2.2833   19.5884 C   0  0  0  0  0  0  0  0  0  0  0  0
    4.6917    1.4215   19.2633 C   0  0  0  0  0  0  0  0  0  0  0  0
    5.1657    1.2345   17.9403 C   0  0  0  0  0  0  0  0  0  0  0  0
    6.1898    0.4547   17.6153 N   0  0  0  0  0  0  0  0  0  0  0  0
    6.8189   -0.1883   18.6123 C   0  0  0  0  0  0  0  0  0  0  0  0
    8.3191   -1.1279   23.5227 H   0  0  0  0  0  0  0  0  0  0  0  0
    8.9584   -2.1881   22.2212 H   0  0  0  0  0  0  0  0  0  0  0  0
    9.7847    0.4671   24.6465 H   0  0  0  0  0  0  0  0  0  0  0  0
   12.0697    1.2387   25.1300 H   0  0  0  0  0  0  0  0  0  0  0  0
   13.9665    0.4430   23.7546 H   0  0  0  0  0  0  0  0  0  0  0  0
   11.2872   -2.0272   21.5195 H   0  0  0  0  0  0  0  0  0  0  0  0
    6.8723   -1.5552   21.3660 H   0  0  0  0  0  0  0  0  0  0  0  0
    5.3449    0.3417   22.4437 H   0  0  0  0  0  0  0  0  0  0  0  0
    3.4641    1.8122   22.9188 H   0  0  0  0  0  0  0  0  0  0  0  0
    2.3733    3.0782   21.1140 H   0  0  0  0  0  0  0  0  0  0  0  0
    3.1172    2.8391   18.8061 H   0  0  0  0  0  0  0  0  0  0  0  0
    4.6603    1.7612   17.1443 H   0  0  0  0  0  0  0  0  0  0  0  0
    7.6563   -0.8175   18.3491 H   0  0  0  0  0  0  0  0  0  0  0  0
  1  2  2  0
  2  3  1  0
  2 11  1  0
  3  4  1  0
  3 22  1  1
  3 23  1  0
  4  5  2  0
  4  8  1  0
  5  6  1  0
  5 24  1  0
  6  7  2  0
  6 25  1  0
  7  9  1  0
  7 26  1  0
  8  9  2  0
  8 27  1  0
  9 10  1  0
 11 12  1  0
 11 28  1  0
 12 13  2  0
 12 21  1  0
 13 14  1  0
 13 18  1  0
 14 15  2  0
 14 29  1  0
 15 16  1  0
 15 30  1  0
 16 17  2  0
 16 31  1  0
 17 18  1  0
 17 32  1  0
 18 19  2  0
 19 20  1  0
 19 33  1  0
 20 21  2  0
 21 34  1  0
M  END
$$$$
