LIG(A-306)
     RDKit          3D

 37 39  0  0  1  0  0  0  0  0999 V2000
  -14.2256   -2.5694  -21.5605 Cl  0  0  0  0  0  0  0  0  0  0  0  0
  -13.0175   -1.6315  -22.3810 C   0  0  0  0  0  0  0  0  0  0  0  0
  -13.3734   -0.6496  -23.2963 C   0  0  0  0  0  0  0  0  0  0  0  0
  -15.0307   -0.2020  -23.5246 Cl  0  0  0  0  0  0  0  0  0  0  0  0
  -12.3916    0.0523  -23.9702 C   0  0  0  0  0  0  0  0  0  0  0  0
  -11.0589   -0.2096  -23.7118 C   0  0  0  0  0  0  0  0  0  0  0  0
  -11.6827   -1.8795  -22.1145 C   0  0  0  0  0  0  0  0  0  0  0  0
  -10.6879   -1.1676  -22.7785 C   0  0  0  0  0  0  0  0  0  0  0  0
   -9.2213   -1.4939  -22.5185 C   0  0  2  0  0  0  0  0  0  0  0  0
   -8.9959   -3.0183  -22.5498 C   0  0  1  0  0  0  0  0  0  0  0  0
   -8.7368   -0.6239  -21.3472 C   0  0  0  0  0  0  0  0  0  0  0  0
   -9.3130    0.4194  -21.0399 O   0  0  0  0  0  0  0  0  0  0  0  0
   -7.5839   -1.0306  -20.7450 N   0  0  0  0  0  0  0  0  0  0  0  0
   -6.8481   -0.3696  -19.7438 C   0  0  0  0  0  0  0  0  0  0  0  0
   -5.8385    0.5584  -20.1440 C   0  0  0  0  0  0  0  0  0  0  0  0
   -5.4906    0.8131  -21.4976 C   0  0  0  0  0  0  0  0  0  0  0  0
   -4.5409    1.7429  -21.8157 C   0  0  0  0  0  0  0  0  0  0  0  0
   -3.8929    2.4621  -20.8182 C   0  0  0  0  0  0  0  0  0  0  0  0
   -4.1887    2.2484  -19.5025 C   0  0  0  0  0  0  0  0  0  0  0  0
   -5.1694    1.2935  -19.1284 C   0  0  0  0  0  0  0  0  0  0  0  0
   -5.5472    1.0499  -17.7857 C   0  0  0  0  0  0  0  0  0  0  0  0
   -6.4848    0.1858  -17.4174 N   0  0  0  0  0  0  0  0  0  0  0  0
   -7.1076   -0.5005  -18.3819 C   0  0  0  0  0  0  0  0  0  0  0  0
  -12.6649    0.8034  -24.6966 H   0  0  0  0  0  0  0  0  0  0  0  0
  -10.2957    0.3390  -24.2438 H   0  0  0  0  0  0  0  0  0  0  0  0
  -11.4110   -2.6301  -21.3870 H   0  0  0  0  0  0  0  0  0  0  0  0
   -8.6831   -1.1104  -23.3978 H   0  0  0  0  0  0  0  0  0  0  0  0
   -7.9345   -3.2365  -22.3607 H   0  0  0  0  0  0  0  0  0  0  0  0
   -9.6121   -3.4960  -21.7739 H   0  0  0  0  0  0  0  0  0  0  0  0
   -9.2805   -3.4107  -23.5373 H   0  0  0  0  0  0  0  0  0  0  0  0
   -7.2150   -1.9076  -21.0528 H   0  0  0  0  0  0  0  0  0  0  0  0
   -5.9836    0.2643  -22.2863 H   0  0  0  0  0  0  0  0  0  0  0  0
   -4.2916    1.9205  -22.8515 H   0  0  0  0  0  0  0  0  0  0  0  0
   -3.1484    3.1970  -21.0864 H   0  0  0  0  0  0  0  0  0  0  0  0
   -3.6716    2.8113  -18.7395 H   0  0  0  0  0  0  0  0  0  0  0  0
   -5.0389    1.6037  -17.0102 H   0  0  0  0  0  0  0  0  0  0  0  0
   -7.8671   -1.2077  -18.0826 H   0  0  0  0  0  0  0  0  0  0  0  0
  1  2  1  0
  2  3  2  0
  2  7  1  0
  3  4  1  0
  3  5  1  0
  5  6  2  0
  5 24  1  0
  6  8  1  0
  6 25  1  0
  7  8  2  0
  7 26  1  0
  8  9  1  0
  9 10  1  0
  9 11  1  0
  9 27  1  6
 10 28  1  1
 10 29  1  0
 10 30  1  0
 11 12  2  0
 11 13  1  0
 13 14  1  0
 13 31  1  0
 14 15  2  0
 14 23  1  0
 15 16  1  0
 15 20  1  0
 16 17  2  0
 16 32  1  0
 17 18  1  0
 17 33  1  0
 18 19  2  0
 18 34  1  0
 19 20  1  0
 19 35  1  0
 20 21  2  0
 21 22  1  0
 21 36  1  0
 22 23  2  0
 23 37  1  0
M  END
$$$$
