LIG(A-305)
     RDKit          3D

 37 40  0  0  1  0  0  0  0  0999 V2000
    5.6145    0.5509   19.2772 N   0  0  0  0  0  0  0  0  0  0  0  0
    7.2585   -0.1302   20.8292 N   0  0  0  0  0  0  0  0  0  0  0  0
    6.7814    0.4848   17.4192 N   0  0  0  0  0  0  0  0  0  0  0  0
    4.8737    2.0640   21.1722 C   0  0  1  0  0  0  0  0  0  0  0  0
   12.8906   -0.0137   23.4470 C   0  0  0  0  0  0  0  0  0  0  0  0
    9.2276    0.8916   20.9821 O   0  0  0  0  0  0  0  0  0  0  0  0
    6.9055    0.3178   19.5902 C   0  0  0  0  0  0  0  0  0  0  0  0
   11.9267    0.5834   24.2390 C   0  0  0  0  0  0  0  0  0  0  0  0
    8.7135   -0.7503   22.6791 C   0  0  2  0  0  0  0  0  0  0  0  0
    7.8226   -0.2202   23.8241 C   0  0  1  0  0  0  0  0  0  0  0  0
    8.3437    1.1088   24.3041 C   0  0  1  0  0  0  0  0  0  0  0  0
    4.5786    0.9270   20.2572 C   0  0  1  0  0  0  0  0  0  0  0  0
   10.1855   -0.5524   22.9861 C   0  0  0  0  0  0  0  0  0  0  0  0
    5.5915    0.6479   17.9182 C   0  0  0  0  0  0  0  0  0  0  0  0
    3.8597    2.2191   20.0842 C   0  0  2  0  0  0  0  0  0  0  0  0
   11.1724   -1.1696   22.2191 C   0  0  0  0  0  0  0  0  0  0  0  0
   12.5015   -0.8837   22.4540 C   0  0  0  0  0  0  0  0  0  0  0  0
    7.6365    0.2757   18.4871 N   0  0  0  0  0  0  0  0  0  0  0  0
    9.6947    1.0016   24.8001 O   0  0  0  0  0  0  0  0  0  0  0  0
    8.4885   -0.0093   21.3591 C   0  0  0  0  0  0  0  0  0  0  0  0
   10.5847    0.3245   23.9980 C   0  0  0  0  0  0  0  0  0  0  0  0
   13.7154   -1.6468   21.4650 Cl  0  0  0  0  0  0  0  0  0  0  0  0
    6.5552   -0.5788   21.3806 H   0  0  0  0  0  0  0  0  0  0  0  0
    4.5516    2.0228   22.2231 H   0  0  0  0  0  0  0  0  0  0  0  0
    5.8381    2.5888   21.1047 H   0  0  0  0  0  0  0  0  0  0  0  0
   13.9371    0.2004   23.6059 H   0  0  0  0  0  0  0  0  0  0  0  0
   12.2166    1.2471   25.0402 H   0  0  0  0  0  0  0  0  0  0  0  0
    8.5110   -1.8216   22.5328 H   0  0  0  0  0  0  0  0  0  0  0  0
    6.7925   -0.0977   23.4583 H   0  0  0  0  0  0  0  0  0  0  0  0
    7.8329   -0.9386   24.6571 H   0  0  0  0  0  0  0  0  0  0  0  0
    8.3262    1.8224   23.4673 H   0  0  0  0  0  0  0  0  0  0  0  0
    7.6946    1.4758   25.1127 H   0  0  0  0  0  0  0  0  0  0  0  0
    3.9916    0.1018   20.6867 H   0  0  0  0  0  0  0  0  0  0  0  0
    4.7032    0.8353   17.3332 H   0  0  0  0  0  0  0  0  0  0  0  0
    4.0775    2.8582   19.2158 H   0  0  0  0  0  0  0  0  0  0  0  0
    2.7910    2.2921   20.3343 H   0  0  0  0  0  0  0  0  0  0  0  0
   10.8976   -1.8691   21.4435 H   0  0  0  0  0  0  0  0  0  0  0  0
  1  7  1  0
  1 12  1  0
  1 14  1  0
  2  7  1  0
  2 20  1  0
  2 23  1  0
  3 14  2  0
  3 18  1  0
  4 12  1  0
  4 15  1  0
  4 24  1  1
  4 25  1  0
  5  8  2  0
  5 17  1  0
  5 26  1  0
  6 20  2  0
  7 18  2  0
  8 21  1  0
  8 27  1  0
  9 10  1  0
  9 13  1  0
  9 20  1  0
  9 28  1  6
 10 11  1  0
 10 29  1  6
 10 30  1  0
 11 19  1  0
 11 31  1  6
 11 32  1  0
 12 15  1  0
 12 33  1  1
 13 16  1  0
 13 21  2  0
 14 34  1  0
 15 35  1  6
 15 36  1  0
 16 17  2  0
 16 37  1  0
 17 22  1  0
 19 21  1  0
M  END
$$$$
