LIG(B-305)
     RDKit          3D

 40 41  0  0  1  0  0  0  0  0999 V2000
  -13.9485   -1.8448  -21.3641 Cl  0  0  0  0  0  0  0  0  0  0  0  0
  -12.7515   -0.8868  -22.1891 C   0  0  0  0  0  0  0  0  0  0  0  0
  -13.1395    0.2753  -22.8240 C   0  0  0  0  0  0  0  0  0  0  0  0
  -12.1775    1.0233  -23.4840 C   0  0  0  0  0  0  0  0  0  0  0  0
  -10.8515    0.6173  -23.4830 C   0  0  0  0  0  0  0  0  0  0  0  0
  -11.4345   -1.3038  -22.1751 C   0  0  0  0  0  0  0  0  0  0  0  0
  -10.4625   -0.5348  -22.8071 C   0  0  0  0  0  0  0  0  0  0  0  0
   -8.9925   -0.8908  -22.6402 C   0  0  1  0  0  0  0  0  0  0  0  0
   -8.2006   -0.6077  -23.9262 C   0  0  1  0  0  0  0  0  0  0  0  0
   -8.4426   -1.6126  -25.0293 C   0  0  1  0  0  0  0  0  0  0  0  0
   -8.0857   -1.0606  -26.3712 C   0  0  1  0  0  0  0  0  0  0  0  0
   -8.4125   -0.0689  -21.4892 C   0  0  0  0  0  0  0  0  0  0  0  0
   -8.8745    1.0201  -21.1711 O   0  0  0  0  0  0  0  0  0  0  0  0
   -7.3225   -0.6089  -20.8992 N   0  0  0  0  0  0  0  0  0  0  0  0
   -6.5884    0.0200  -19.8652 C   0  0  0  0  0  0  0  0  0  0  0  0
   -5.4314    0.7560  -20.1732 C   0  0  0  0  0  0  0  0  0  0  0  0
   -4.9555    0.9431  -21.5922 C   0  0  1  0  0  0  0  0  0  0  0  0
   -4.7744    1.3819  -19.1202 C   0  0  0  0  0  0  0  0  0  0  0  0
   -5.2844    1.2838  -17.8422 C   0  0  0  0  0  0  0  0  0  0  0  0
   -6.3894    0.5948  -17.5392 N   0  0  0  0  0  0  0  0  0  0  0  0
   -7.0214   -0.0231  -18.5412 C   0  0  0  0  0  0  0  0  0  0  0  0
  -14.1709    0.5951  -22.8069 H   0  0  0  0  0  0  0  0  0  0  0  0
  -12.4620    1.9273  -24.0018 H   0  0  0  0  0  0  0  0  0  0  0  0
  -10.1134    1.2014  -24.0124 H   0  0  0  0  0  0  0  0  0  0  0  0
  -11.1610   -2.2218  -21.6763 H   0  0  0  0  0  0  0  0  0  0  0  0
   -8.9063   -1.9599  -22.3963 H   0  0  0  0  0  0  0  0  0  0  0  0
   -8.4859    0.3881  -24.2963 H   0  0  0  0  0  0  0  0  0  0  0  0
   -7.1283   -0.6144  -23.6809 H   0  0  0  0  0  0  0  0  0  0  0  0
   -7.8303   -2.5062  -24.8375 H   0  0  0  0  0  0  0  0  0  0  0  0
   -9.5069   -1.8907  -25.0303 H   0  0  0  0  0  0  0  0  0  0  0  0
   -8.2759   -1.8206  -27.1434 H   0  0  0  0  0  0  0  0  0  0  0  0
   -8.6973   -0.1694  -26.5754 H   0  0  0  0  0  0  0  0  0  0  0  0
   -7.0208   -0.7849  -26.3827 H   0  0  0  0  0  0  0  0  0  0  0  0
   -7.0160   -1.5078  -21.2126 H   0  0  0  0  0  0  0  0  0  0  0  0
   -5.7340    1.4559  -22.1760 H   0  0  0  0  0  0  0  0  0  0  0  0
   -4.0372    1.5488  -21.5939 H   0  0  0  0  0  0  0  0  0  0  0  0
   -4.7476   -0.0392  -22.0416 H   0  0  0  0  0  0  0  0  0  0  0  0
   -3.8691    1.9422  -19.3016 H   0  0  0  0  0  0  0  0  0  0  0  0
   -4.7631    1.7908  -17.0435 H   0  0  0  0  0  0  0  0  0  0  0  0
   -7.9147   -0.5855  -18.3131 H   0  0  0  0  0  0  0  0  0  0  0  0
  1  2  1  0
  2  3  2  0
  2  6  1  0
  3  4  1  0
  3 22  1  0
  4  5  2  0
  4 23  1  0
  5  7  1  0
  5 24  1  0
  6  7  2  0
  6 25  1  0
  7  8  1  0
  8  9  1  0
  8 12  1  0
  8 26  1  1
  9 10  1  0
  9 27  1  6
  9 28  1  0
 10 11  1  0
 10 29  1  1
 10 30  1  0
 11 31  1  6
 11 32  1  0
 11 33  1  0
 12 13  2  0
 12 14  1  0
 14 15  1  0
 14 34  1  0
 15 16  2  0
 15 21  1  0
 16 17  1  0
 16 18  1  0
 17 35  1  6
 17 36  1  0
 17 37  1  0
 18 19  2  0
 18 38  1  0
 19 20  1  0
 19 39  1  0
 20 21  2  0
 21 40  1  0
M  END
$$$$
