LIG(A-305)
     RDKit          3D

 43 45  0  0  1  0  0  0  0  0999 V2000
    6.2949    0.7681   25.3910 F   0  0  0  0  0  0  0  0  0  0  0  0
    5.7281   -0.2868   25.9733 C   0  0  1  0  0  0  0  0  0  0  0  0
    4.4921    0.0761   26.3034 F   0  0  0  0  0  0  0  0  0  0  0  0
    5.6071   -1.2200   25.0305 F   0  0  0  0  0  0  0  0  0  0  0  0
    6.5034   -0.7695   27.1612 C   0  0  2  0  0  0  0  0  0  0  0  0
    6.9874    0.2788   28.1179 C   0  0  1  0  0  0  0  0  0  0  0  0
    7.9535   -0.6952   27.5209 C   0  0  2  0  0  0  0  0  0  0  0  0
    9.1693   -0.1882   26.9026 N   0  0  0  0  0  0  0  0  0  0  0  0
    9.7080   -0.2693   25.6215 C   0  0  0  0  0  0  0  0  0  0  0  0
   11.0009    0.2118   25.4232 C   0  0  0  0  0  0  0  0  0  0  0  0
   11.5927    0.0367   24.1871 C   0  0  0  0  0  0  0  0  0  0  0  0
   13.3137    0.2949   24.0347 Cl  0  0  0  0  0  0  0  0  0  0  0  0
   10.9006   -0.5036   23.1193 C   0  0  0  0  0  0  0  0  0  0  0  0
    9.0099   -0.8336   24.5567 C   0  0  0  0  0  0  0  0  0  0  0  0
    9.5957   -0.9488   23.3007 C   0  0  0  0  0  0  0  0  0  0  0  0
    8.8486   -1.6131   22.1649 C   0  0  1  0  0  0  0  0  0  0  0  0
    8.1543   -0.6124   21.2629 C   0  0  0  0  0  0  0  0  0  0  0  0
    8.6321    0.4896   21.0366 O   0  0  0  0  0  0  0  0  0  0  0  0
    6.9912   -1.0396   20.7362 N   0  0  0  0  0  0  0  0  0  0  0  0
    6.2700   -0.3309   19.7522 C   0  0  0  0  0  0  0  0  0  0  0  0
    5.0899    0.3530   20.0963 C   0  0  0  0  0  0  0  0  0  0  0  0
    4.5502    0.3582   21.5054 C   0  0  1  0  0  0  0  0  0  0  0  0
    6.7517   -0.2211   18.4501 C   0  0  0  0  0  0  0  0  0  0  0  0
    6.1564    0.5126   17.5040 N   0  0  0  0  0  0  0  0  0  0  0  0
    5.0264    1.1455   17.8381 C   0  0  0  0  0  0  0  0  0  0  0  0
    4.4656    1.0917   19.0962 C   0  0  0  0  0  0  0  0  0  0  0  0
    5.9919   -1.5943   27.6791 H   0  0  0  0  0  0  0  0  0  0  0  0
    7.0107    1.3349   27.8113 H   0  0  0  0  0  0  0  0  0  0  0  0
    6.7276    0.2122   29.1847 H   0  0  0  0  0  0  0  0  0  0  0  0
    8.1953   -1.4773   28.2556 H   0  0  0  0  0  0  0  0  0  0  0  0
    9.7426    0.3318   27.5358 H   0  0  0  0  0  0  0  0  0  0  0  0
   11.5302    0.7121   26.2207 H   0  0  0  0  0  0  0  0  0  0  0  0
   11.3706   -0.5796   22.1500 H   0  0  0  0  0  0  0  0  0  0  0  0
    8.0005   -1.1865   24.7084 H   0  0  0  0  0  0  0  0  0  0  0  0
    9.5642   -2.1930   21.5635 H   0  0  0  0  0  0  0  0  0  0  0  0
    8.0923   -2.2902   22.5886 H   0  0  0  0  0  0  0  0  0  0  0  0
    6.6174   -1.9085   21.0607 H   0  0  0  0  0  0  0  0  0  0  0  0
    5.2958    0.8003   22.1825 H   0  0  0  0  0  0  0  0  0  0  0  0
    3.6248    0.9519   21.5413 H   0  0  0  0  0  0  0  0  0  0  0  0
    4.3360   -0.6740   21.8196 H   0  0  0  0  0  0  0  0  0  0  0  0
    7.6531   -0.7565   18.1910 H   0  0  0  0  0  0  0  0  0  0  0  0
    4.5260    1.7307   17.0808 H   0  0  0  0  0  0  0  0  0  0  0  0
    3.5469    1.6199   19.3044 H   0  0  0  0  0  0  0  0  0  0  0  0
  2  1  1  6
  2  3  1  0
  2  4  1  0
  2  5  1  0
  5  6  1  0
  5  7  1  0
  5 27  1  1
  6  7  1  0
  6 28  1  6
  6 29  1  0
  7  8  1  0
  7 30  1  1
  8  9  1  0
  8 31  1  0
  9 10  2  0
  9 14  1  0
 10 11  1  0
 10 32  1  0
 11 12  1  0
 11 13  2  0
 13 15  1  0
 13 33  1  0
 14 15  2  0
 14 34  1  0
 15 16  1  0
 16 17  1  0
 16 35  1  6
 16 36  1  0
 17 18  2  0
 17 19  1  0
 19 20  1  0
 19 37  1  0
 20 21  2  0
 20 23  1  0
 21 22  1  0
 21 26  1  0
 22 38  1  1
 22 39  1  0
 22 40  1  0
 23 24  2  0
 23 41  1  0
 24 25  1  0
 25 26  2  0
 25 42  1  0
 26 43  1  0
M  END
$$$$
