LIG(A-306)
     RDKit          3D

 38 40  0  0  1  0  0  0  0  0999 V2000
  -11.0946   -1.2174  -22.9509 C   0  0  2  0  0  0  0  0  0  0  0  0
   -4.7137    1.3851  -19.0845 C   0  0  0  0  0  0  0  0  0  0  0  0
  -12.4171   -1.9277  -22.6672 C   0  0  1  0  0  0  0  0  0  0  0  0
  -13.6024   -1.2659  -23.3639 C   0  0  1  0  0  0  0  0  0  0  0  0
   -6.4180   -0.0293  -19.8806 C   0  0  0  0  0  0  0  0  0  0  0  0
  -13.3607   -1.1663  -24.8569 C   0  0  1  0  0  0  0  0  0  0  0  0
  -12.1118   -0.3529  -25.1192 C   0  0  1  0  0  0  0  0  0  0  0  0
  -10.9005   -0.9986  -24.4515 C   0  0  1  0  0  0  0  0  0  0  0  0
   -8.2987   -0.3613  -21.5156 C   0  0  0  0  0  0  0  0  0  0  0  0
   -6.8970   -0.0955  -18.5760 C   0  0  0  0  0  0  0  0  0  0  0  0
   -5.2308    1.2841  -17.8140 C   0  0  0  0  0  0  0  0  0  0  0  0
   -7.5118   -2.2981  -22.4788 N   0  0  0  0  0  0  0  0  0  0  0  0
   -7.0918   -0.7387  -20.9340 N   0  0  0  0  0  0  0  0  0  0  0  0
   -9.9268   -2.0107  -22.3707 C   0  0  1  0  0  0  0  0  0  0  0  0
   -6.3094    0.5443  -17.5638 N   0  0  0  0  0  0  0  0  0  0  0  0
   -6.6462   -1.9499  -21.5220 C   0  0  0  0  0  0  0  0  0  0  0  0
   -5.2983    0.7375  -20.1408 C   0  0  0  0  0  0  0  0  0  0  0  0
   -8.5924   -1.3325  -22.6466 C   0  0  0  0  0  0  0  0  0  0  0  0
   -3.6099    2.1548  -19.2967 F   0  0  0  0  0  0  0  0  0  0  0  0
   -5.6483   -2.5558  -21.2028 O   0  0  0  0  0  0  0  0  0  0  0  0
   -8.9715    0.5915  -21.2011 O   0  0  0  0  0  0  0  0  0  0  0  0
  -11.1202   -0.2332  -22.4603 H   0  0  0  0  0  0  0  0  0  0  0  0
  -12.3397   -2.9680  -23.0162 H   0  0  0  0  0  0  0  0  0  0  0  0
  -12.5962   -1.9174  -21.5819 H   0  0  0  0  0  0  0  0  0  0  0  0
  -14.5072   -1.8651  -23.1840 H   0  0  0  0  0  0  0  0  0  0  0  0
  -13.7442   -0.2554  -22.9531 H   0  0  0  0  0  0  0  0  0  0  0  0
  -13.2337   -2.1759  -25.2747 H   0  0  0  0  0  0  0  0  0  0  0  0
  -14.2224   -0.6774  -25.3349 H   0  0  0  0  0  0  0  0  0  0  0  0
  -11.9389   -0.2954  -26.2040 H   0  0  0  0  0  0  0  0  0  0  0  0
  -12.2494    0.6611  -24.7156 H   0  0  0  0  0  0  0  0  0  0  0  0
  -10.0278   -0.3459  -24.6011 H   0  0  0  0  0  0  0  0  0  0  0  0
  -10.7155   -1.9730  -24.9272 H   0  0  0  0  0  0  0  0  0  0  0  0
   -7.7778   -0.6874  -18.3754 H   0  0  0  0  0  0  0  0  0  0  0  0
   -4.7530    1.8149  -17.0039 H   0  0  0  0  0  0  0  0  0  0  0  0
   -7.4276   -3.1330  -23.0227 H   0  0  0  0  0  0  0  0  0  0  0  0
  -10.0627   -2.1007  -21.2828 H   0  0  0  0  0  0  0  0  0  0  0  0
   -9.9173   -3.0133  -22.8232 H   0  0  0  0  0  0  0  0  0  0  0  0
   -4.8986    0.8231  -21.1405 H   0  0  0  0  0  0  0  0  0  0  0  0
  1  3  1  0
  1  8  1  0
  1 14  1  0
  1 22  1  1
  2 11  2  0
  2 17  1  0
  2 19  1  0
  3  4  1  0
  3 23  1  6
  3 24  1  0
  4  6  1  0
  4 25  1  6
  4 26  1  0
  5 10  1  0
  5 13  1  0
  5 17  2  0
  6  7  1  0
  6 27  1  6
  6 28  1  0
  7  8  1  0
  7 29  1  6
  7 30  1  0
  8 31  1  1
  8 32  1  0
  9 13  1  0
  9 18  2  0
  9 21  1  0
 10 15  2  0
 10 33  1  0
 11 15  1  0
 11 34  1  0
 12 16  1  0
 12 18  1  0
 12 35  1  0
 13 16  1  0
 14 18  1  0
 14 36  1  1
 14 37  1  0
 16 20  2  0
 17 38  1  0
M  CHG  1  21  -1
M  END
$$$$
