LIG(A-307)
     RDKit          3D

 61 66  0  0  1  0  0  0  0  0999 V2000
    9.1368    7.1958   22.5325 N   0  0  0  0  0  0  0  0  0  0  0  0
    8.4098    6.3208   22.5386 C   0  0  0  0  0  0  0  0  0  0  0  0
    7.5178    5.1548   22.5077 C   0  0  2  0  0  0  0  0  0  0  0  0
    6.2367    5.2788   21.7140 C   0  0  1  0  0  0  0  0  0  0  0  0
    6.1729    5.2547   23.1930 C   0  0  2  0  0  0  0  0  0  0  0  0
    8.2549    3.8278   22.6186 C   0  0  1  0  0  0  0  0  0  0  0  0
    8.7222    3.2808   24.2485 S   0  0  1  0  0  0  0  0  0  0  0  0
    9.4553    4.3288   24.8833 O   0  0  0  0  0  0  0  0  0  0  0  0
    7.5603    2.7547   24.8917 O   0  0  0  0  0  0  0  0  0  0  0  0
    9.7512    2.0398   24.0162 N   0  0  0  0  0  0  0  0  0  0  0  0
   11.1962    2.2128   24.2150 C   0  0  1  0  0  0  0  0  0  0  0  0
    9.3182    0.6408   24.1623 C   0  0  1  0  0  0  0  0  0  0  0  0
    9.8980   -0.1782   22.9792 C   0  0  2  0  0  0  0  0  0  0  0  0
   11.4000    0.0939   22.7919 C   0  0  0  0  0  0  0  0  0  0  0  0
   11.9881    1.2279   23.3798 C   0  0  0  0  0  0  0  0  0  0  0  0
   13.3460    1.4659   23.1796 C   0  0  0  0  0  0  0  0  0  0  0  0
   14.1119    0.6280   22.3914 C   0  0  0  0  0  0  0  0  0  0  0  0
   12.1839   -0.7671   22.0167 C   0  0  0  0  0  0  0  0  0  0  0  0
   13.5198   -0.4711   21.8135 C   0  0  0  0  0  0  0  0  0  0  0  0
   14.4737   -1.5080   20.7793 Cl  0  0  0  0  0  0  0  0  0  0  0  0
    9.1298    0.2948   21.7483 C   0  0  0  0  0  0  0  0  0  0  0  0
    9.5417    1.2369   21.1043 O   0  0  0  0  0  0  0  0  0  0  0  0
    7.9458   -0.3262   21.4395 N   0  0  0  0  0  0  0  0  0  0  0  0
    7.6119   -1.7082   21.8335 C   0  0  1  0  0  0  0  0  0  0  0  0
    8.1911   -2.0572   23.1934 C   0  0  1  0  0  0  0  0  0  0  0  0
    9.6661   -1.6822   23.2512 C   0  0  2  0  0  0  0  0  0  0  0  0
    7.1496    0.1248   20.3297 C   0  0  0  0  0  0  0  0  0  0  0  0
    5.9666    0.8898   20.5639 C   0  0  0  0  0  0  0  0  0  0  0  0
    5.4858    1.2357   21.8550 C   0  0  0  0  0  0  0  0  0  0  0  0
    4.3598    1.9927   22.0082 C   0  0  0  0  0  0  0  0  0  0  0  0
    3.6626    2.4547   20.9024 C   0  0  0  0  0  0  0  0  0  0  0  0
    4.0794    2.1467   19.6373 C   0  0  0  0  0  0  0  0  0  0  0  0
    5.2334    1.3518   19.4310 C   0  0  0  0  0  0  0  0  0  0  0  0
    5.7091    0.9948   18.1430 C   0  0  0  0  0  0  0  0  0  0  0  0
    6.7971    0.2679   17.9287 N   0  0  0  0  0  0  0  0  0  0  0  0
    7.4873   -0.1421   19.0046 C   0  0  0  0  0  0  0  0  0  0  0  0
    6.0163    6.2097   21.1710 H   0  0  0  0  0  0  0  0  0  0  0  0
    5.8652    4.4202   21.1354 H   0  0  0  0  0  0  0  0  0  0  0  0
    5.9055    6.1678   23.7449 H   0  0  0  0  0  0  0  0  0  0  0  0
    5.7545    4.3783   23.7094 H   0  0  0  0  0  0  0  0  0  0  0  0
    7.6059    3.0530   22.1844 H   0  0  0  0  0  0  0  0  0  0  0  0
    9.1756    3.9113   22.0224 H   0  0  0  0  0  0  0  0  0  0  0  0
   11.4778    3.2359   23.9254 H   0  0  0  0  0  0  0  0  0  0  0  0
   11.4334    2.0540   25.2773 H   0  0  0  0  0  0  0  0  0  0  0  0
    9.6914    0.2340   25.1137 H   0  0  0  0  0  0  0  0  0  0  0  0
    8.2196    0.5885   24.1470 H   0  0  0  0  0  0  0  0  0  0  0  0
   13.8089    2.3213   23.6491 H   0  0  0  0  0  0  0  0  0  0  0  0
   15.1602    0.8330   22.2315 H   0  0  0  0  0  0  0  0  0  0  0  0
   11.7500   -1.6549   21.5809 H   0  0  0  0  0  0  0  0  0  0  0  0
    6.5177   -1.8134   21.8739 H   0  0  0  0  0  0  0  0  0  0  0  0
    8.0195   -2.4017   21.0832 H   0  0  0  0  0  0  0  0  0  0  0  0
    7.6455   -1.5053   23.9729 H   0  0  0  0  0  0  0  0  0  0  0  0
    8.0844   -3.1382   23.3668 H   0  0  0  0  0  0  0  0  0  0  0  0
   10.0544   -1.9252   24.2513 H   0  0  0  0  0  0  0  0  0  0  0  0
   10.2100   -2.2669   22.4947 H   0  0  0  0  0  0  0  0  0  0  0  0
    6.0196    0.8944   22.7297 H   0  0  0  0  0  0  0  0  0  0  0  0
    4.0088    2.2340   23.0007 H   0  0  0  0  0  0  0  0  0  0  0  0
    2.7817    3.0638   21.0417 H   0  0  0  0  0  0  0  0  0  0  0  0
    3.5234    2.5132   18.7870 H   0  0  0  0  0  0  0  0  0  0  0  0
    5.1507    1.3363   17.2840 H   0  0  0  0  0  0  0  0  0  0  0  0
    8.3779   -0.7272   18.8285 H   0  0  0  0  0  0  0  0  0  0  0  0
  1  2  3  0
  3  2  1  1
  3  4  1  0
  3  5  1  0
  3  6  1  0
  4  5  1  0
  4 37  1  6
  4 38  1  0
  5 39  1  1
  5 40  1  0
  6  7  1  0
  6 41  1  6
  6 42  1  0
  7  8  2  0
  7  9  2  0
  7 10  1  6
 10 11  1  0
 10 12  1  0
 11 15  1  0
 11 43  1  6
 11 44  1  0
 12 13  1  0
 12 45  1  1
 12 46  1  0
 13 14  1  0
 13 21  1  6
 13 26  1  0
 14 15  2  0
 14 18  1  0
 15 16  1  0
 16 17  2  0
 16 47  1  0
 17 19  1  0
 17 48  1  0
 18 19  2  0
 18 49  1  0
 19 20  1  0
 21 22  2  0
 21 23  1  0
 23 24  1  0
 23 27  1  0
 24 25  1  0
 24 50  1  1
 24 51  1  0
 25 26  1  0
 25 52  1  1
 25 53  1  0
 26 54  1  1
 26 55  1  0
 27 28  2  0
 27 36  1  0
 28 29  1  0
 28 33  1  0
 29 30  2  0
 29 56  1  0
 30 31  1  0
 30 57  1  0
 31 32  2  0
 31 58  1  0
 32 33  1  0
 32 59  1  0
 33 34  2  0
 34 35  1  0
 34 60  1  0
 35 36  2  0
 36 61  1  0
M  END
$$$$
