LIG(A-305)
     RDKit          3D

 46 48  0  0  0  0  0  0  0  0999 V2000
    6.4304    1.1037   16.7331 O   0  0  0  0  0  0  0  0  0  0  0  0
    5.8404    0.8258   17.7812 C   0  0  0  0  0  0  0  0  0  0  0  0
    6.2534   -0.1952   18.6722 C   0  0  0  0  0  0  0  0  0  0  0  0
    4.7814    1.5848   18.1962 N   0  0  0  0  0  0  0  0  0  0  0  0
    4.1665    1.4659   19.4422 C   0  0  0  0  0  0  0  0  0  0  0  0
    4.6235    0.4929   20.3642 C   0  0  0  0  0  0  0  0  0  0  0  0
    4.0385    0.4420   21.6502 C   0  0  0  0  0  0  0  0  0  0  0  0
    4.5495   -0.4520   22.7502 C   0  0  1  0  0  0  0  0  0  0  0  0
    2.9915    1.3141   21.9462 C   0  0  0  0  0  0  0  0  0  0  0  0
    2.5316    2.2320   21.0242 C   0  0  0  0  0  0  0  0  0  0  0  0
    3.1185    2.3210   19.7762 C   0  0  0  0  0  0  0  0  0  0  0  0
    5.7084   -0.4131   19.8992 C   0  0  0  0  0  0  0  0  0  0  0  0
    6.1794   -1.6281   20.6372 C   0  0  0  0  0  0  0  0  0  0  0  0
    5.5763   -2.6981   20.5653 O   0  0  0  0  0  0  0  0  0  0  0  0
    7.2894   -1.4922   21.3602 N   0  0  0  0  0  0  0  0  0  0  0  0
    7.7404   -2.5261   22.2812 C   0  0  1  0  0  0  0  0  0  0  0  0
    9.2324   -2.5102   22.4302 C   0  0  1  0  0  0  0  0  0  0  0  0
    9.6065   -1.1862   22.8401 O   0  0  0  0  0  0  0  0  0  0  0  0
   10.9305   -0.8303   22.8131 C   0  0  0  0  0  0  0  0  0  0  0  0
   11.1895    0.5017   23.1830 C   0  0  0  0  0  0  0  0  0  0  0  0
   10.0836    1.2338   23.5210 O   0  0  0  0  0  0  0  0  0  0  0  0
   10.2847    2.5098   24.1280 C   0  0  1  0  0  0  0  0  0  0  0  0
   11.9804   -1.6693   22.4641 C   0  0  0  0  0  0  0  0  0  0  0  0
   13.2784   -1.1814   22.4860 C   0  0  0  0  0  0  0  0  0  0  0  0
   13.5335    0.1236   22.8590 C   0  0  0  0  0  0  0  0  0  0  0  0
   12.4966    0.9737   23.2020 C   0  0  0  0  0  0  0  0  0  0  0  0
    7.0558   -0.8450   18.3555 H   0  0  0  0  0  0  0  0  0  0  0  0
    4.4248    2.2723   17.5673 H   0  0  0  0  0  0  0  0  0  0  0  0
    5.5942   -0.1936   22.9779 H   0  0  0  0  0  0  0  0  0  0  0  0
    3.9331   -0.3139   23.6508 H   0  0  0  0  0  0  0  0  0  0  0  0
    4.4940   -1.5014   22.4252 H   0  0  0  0  0  0  0  0  0  0  0  0
    2.5292    1.2700   22.9212 H   0  0  0  0  0  0  0  0  0  0  0  0
    1.7091    2.8840   21.2791 H   0  0  0  0  0  0  0  0  0  0  0  0
    2.7660    3.0508   19.0624 H   0  0  0  0  0  0  0  0  0  0  0  0
    7.8291   -0.6554   21.2680 H   0  0  0  0  0  0  0  0  0  0  0  0
    7.2802   -2.3548   23.2655 H   0  0  0  0  0  0  0  0  0  0  0  0
    7.4291   -3.5087   21.8971 H   0  0  0  0  0  0  0  0  0  0  0  0
    9.5426   -3.2416   23.1911 H   0  0  0  0  0  0  0  0  0  0  0  0
    9.7091   -2.7557   21.4698 H   0  0  0  0  0  0  0  0  0  0  0  0
    9.3099    2.9734   24.3397 H   0  0  0  0  0  0  0  0  0  0  0  0
   10.8430    2.3849   25.0674 H   0  0  0  0  0  0  0  0  0  0  0  0
   10.8566    3.1548   23.4445 H   0  0  0  0  0  0  0  0  0  0  0  0
   11.7880   -2.6928   22.1781 H   0  0  0  0  0  0  0  0  0  0  0  0
   14.0977   -1.8282   22.2088 H   0  0  0  0  0  0  0  0  0  0  0  0
   14.5513    0.4841   22.8832 H   0  0  0  0  0  0  0  0  0  0  0  0
   12.7016    1.9963   23.4823 H   0  0  0  0  0  0  0  0  0  0  0  0
  1  2  2  0
  2  3  1  0
  2  4  1  0
  3 12  2  0
  3 27  1  0
  4  5  1  0
  4 28  1  0
  5  6  2  0
  5 11  1  0
  6  7  1  0
  6 12  1  0
  7  8  1  0
  7  9  2  0
  8 29  1  1
  8 30  1  0
  8 31  1  0
  9 10  1  0
  9 32  1  0
 10 11  2  0
 10 33  1  0
 11 34  1  0
 12 13  1  0
 13 14  2  0
 13 15  1  0
 15 16  1  0
 15 35  1  0
 16 17  1  0
 16 36  1  1
 16 37  1  0
 17 18  1  0
 17 38  1  1
 17 39  1  0
 18 19  1  0
 19 20  2  0
 19 23  1  0
 20 21  1  0
 20 26  1  0
 21 22  1  0
 22 40  1  1
 22 41  1  0
 22 42  1  0
 23 24  2  0
 23 43  1  0
 24 25  1  0
 24 44  1  0
 25 26  2  0
 25 45  1  0
 26 46  1  0
M  END
$$$$
