LIG(A-305)
     RDKit          3D

 48 49  0  0  1  0  0  0  0  0999 V2000
    9.2195    0.9185   20.9912 O   0  0  0  0  0  0  0  0  0  0  0  0
    8.5915   -0.0105   21.4933 C   0  0  0  0  0  0  0  0  0  0  0  0
    7.4034   -0.4574   21.0374 N   0  0  0  0  0  0  0  0  0  0  0  0
    6.6973    0.0516   19.9285 C   0  0  0  0  0  0  0  0  0  0  0  0
    7.2542   -0.0355   18.6534 C   0  0  0  0  0  0  0  0  0  0  0  0
    6.7472    0.5815   17.5824 N   0  0  0  0  0  0  0  0  0  0  0  0
    5.6292    1.2916   17.7565 C   0  0  0  0  0  0  0  0  0  0  0  0
    4.9763    1.4086   18.9716 C   0  0  0  0  0  0  0  0  0  0  0  0
    5.5214    0.7776   20.0745 C   0  0  0  0  0  0  0  0  0  0  0  0
    9.1376   -0.7645   22.6923 C   0  0  1  0  0  0  0  0  0  0  0  0
   10.5886   -0.6055   22.7831 N   0  0  2  0  0  0  0  0  0  0  0  0
   11.2545   -1.9135   22.7181 C   0  0  1  0  0  0  0  0  0  0  0  0
   12.7545   -1.7596   22.5790 C   0  0  1  0  0  0  0  0  0  0  0  0
   13.3216   -0.9026   23.7009 C   0  0  1  0  0  0  0  0  0  0  0  0
   12.5517    0.4074   23.8699 C   0  0  1  0  0  0  0  0  0  0  0  0
   11.0467    0.1655   23.9601 C   0  0  1  0  0  0  0  0  0  0  0  0
   10.2438    1.4305   24.2801 C   0  0  1  0  0  0  0  0  0  0  0  0
   10.7138    2.7315   23.6510 C   0  0  1  0  0  0  0  0  0  0  0  0
   10.7809    3.7755   24.6800 N   0  0  0  0  0  0  0  0  0  0  0  0
   10.6469    5.3425   24.3000 S   0  0  1  0  0  0  0  0  0  0  0  0
   10.2641    6.0246   25.4980 O   0  0  0  0  0  0  0  0  0  0  0  0
   11.8649    5.7195   23.6539 O   0  0  0  0  0  0  0  0  0  0  0  0
    9.3428    5.4995   23.1421 C   0  0  1  0  0  0  0  0  0  0  0  0
    6.9850   -1.2197   21.5313 H   0  0  0  0  0  0  0  0  0  0  0  0
    8.1438   -0.6341   18.5244 H   0  0  0  0  0  0  0  0  0  0  0  0
    5.2114    1.8028   16.9017 H   0  0  0  0  0  0  0  0  0  0  0  0
    4.0631    1.9791   19.0559 H   0  0  0  0  0  0  0  0  0  0  0  0
    5.0390    0.8482   21.0382 H   0  0  0  0  0  0  0  0  0  0  0  0
    8.6727   -0.3717   23.6086 H   0  0  0  0  0  0  0  0  0  0  0  0
    8.8967   -1.8327   22.5878 H   0  0  0  0  0  0  0  0  0  0  0  0
   10.8764   -0.0933   21.9739 H   0  0  0  0  0  0  0  0  0  0  0  0
   11.0355   -2.4736   23.6391 H   0  0  0  0  0  0  0  0  0  0  0  0
   10.8691   -2.4694   21.8506 H   0  0  0  0  0  0  0  0  0  0  0  0
   13.2229   -2.7542   22.6143 H   0  0  0  0  0  0  0  0  0  0  0  0
   12.9790   -1.2827   21.6135 H   0  0  0  0  0  0  0  0  0  0  0  0
   13.2678   -1.4695   24.6420 H   0  0  0  0  0  0  0  0  0  0  0  0
   14.3722   -0.6696   23.4727 H   0  0  0  0  0  0  0  0  0  0  0  0
   12.8895    0.9040   24.7915 H   0  0  0  0  0  0  0  0  0  0  0  0
   12.7581    1.0571   23.0066 H   0  0  0  0  0  0  0  0  0  0  0  0
   10.9076   -0.4961   24.8278 H   0  0  0  0  0  0  0  0  0  0  0  0
    9.2091    1.2580   23.9487 H   0  0  0  0  0  0  0  0  0  0  0  0
   10.2614    1.5659   25.3716 H   0  0  0  0  0  0  0  0  0  0  0  0
   11.7110    2.5864   23.2102 H   0  0  0  0  0  0  0  0  0  0  0  0
   10.0063    3.0356   22.8656 H   0  0  0  0  0  0  0  0  0  0  0  0
   10.3990    3.5205   25.5683 H   0  0  0  0  0  0  0  0  0  0  0  0
    9.2256    6.5568   22.8623 H   0  0  0  0  0  0  0  0  0  0  0  0
    9.5756    4.9067   22.2452 H   0  0  0  0  0  0  0  0  0  0  0  0
    8.4079    5.1333   23.5912 H   0  0  0  0  0  0  0  0  0  0  0  0
  1  2  2  0
  2  3  1  0
  2 10  1  0
  3  4  1  0
  3 24  1  0
  4  5  2  0
  4  9  1  0
  5  6  1  0
  5 25  1  0
  6  7  2  0
  7  8  1  0
  7 26  1  0
  8  9  2  0
  8 27  1  0
  9 28  1  0
 10 11  1  0
 10 29  1  1
 10 30  1  0
 11 12  1  0
 11 16  1  0
 11 31  1  6
 12 13  1  0
 12 32  1  1
 12 33  1  0
 13 14  1  0
 13 34  1  6
 13 35  1  0
 14 15  1  0
 14 36  1  1
 14 37  1  0
 15 16  1  0
 15 38  1  1
 15 39  1  0
 16 17  1  0
 16 40  1  1
 17 18  1  0
 17 41  1  6
 17 42  1  0
 18 19  1  0
 18 43  1  6
 18 44  1  0
 20 19  1  1
 19 45  1  0
 20 21  2  0
 20 22  2  0
 20 23  1  0
 23 46  1  6
 23 47  1  0
 23 48  1  0
M  CHG  1  11   1
M  END
$$$$
