LIG(A-306)
     RDKit          3D

 44 47  0  0  1  0  0  0  0  0999 V2000
  -14.6212   -2.3745  -21.1250 Cl  0  0  0  0  0  0  0  0  0  0  0  0
  -13.4900   -1.5818  -22.1893 C   0  0  0  0  0  0  0  0  0  0  0  0
  -13.9428   -0.5719  -23.0228 C   0  0  0  0  0  0  0  0  0  0  0  0
  -13.0395    0.1192  -23.8133 C   0  0  0  0  0  0  0  0  0  0  0  0
  -11.7009   -0.2266  -23.7424 C   0  0  0  0  0  0  0  0  0  0  0  0
  -10.6662    0.2934  -24.4873 O   0  0  0  0  0  0  0  0  0  0  0  0
   -9.4297   -0.3916  -24.1524 C   0  0  1  0  0  0  0  0  0  0  0  0
  -12.1486   -1.9194  -22.1146 C   0  0  0  0  0  0  0  0  0  0  0  0
  -11.2379   -1.2015  -22.8839 C   0  0  0  0  0  0  0  0  0  0  0  0
   -9.7247   -1.1656  -22.8711 C   0  0  2  0  0  0  0  0  0  0  0  0
   -9.0294   -0.5688  -21.6486 C   0  0  0  0  0  0  0  0  0  0  0  0
   -9.4259    0.4572  -21.1179 O   0  0  0  0  0  0  0  0  0  0  0  0
   -7.9321   -1.2700  -21.0896 N   0  0  0  0  0  0  0  0  0  0  0  0
   -7.4266   -2.4936  -21.6007 C   0  0  0  0  0  0  0  0  0  0  0  0
   -7.8536   -2.9752  -22.6539 O   0  0  0  0  0  0  0  0  0  0  0  0
   -6.3562   -3.1889  -20.8242 C   0  0  1  0  0  0  0  0  0  0  0  0
   -6.9635   -4.3845  -20.0435 C   0  0  1  0  0  0  0  0  0  0  0  0
   -7.2352   -0.6220  -19.9904 C   0  0  0  0  0  0  0  0  0  0  0  0
   -7.6595   -0.7583  -18.6696 C   0  0  0  0  0  0  0  0  0  0  0  0
   -7.1451   -0.0796  -17.6327 N   0  0  0  0  0  0  0  0  0  0  0  0
   -6.1707    0.7826  -17.8883 C   0  0  0  0  0  0  0  0  0  0  0  0
   -5.6526    1.0462  -19.1818 C   0  0  0  0  0  0  0  0  0  0  0  0
   -6.2035    0.3237  -20.2770 C   0  0  0  0  0  0  0  0  0  0  0  0
   -4.6377    2.0071  -19.4315 C   0  0  0  0  0  0  0  0  0  0  0  0
   -4.1961    2.2403  -20.7028 C   0  0  0  0  0  0  0  0  0  0  0  0
   -4.7314    1.5410  -21.7759 C   0  0  0  0  0  0  0  0  0  0  0  0
   -5.7113    0.6072  -21.5805 C   0  0  0  0  0  0  0  0  0  0  0  0
  -14.9937   -0.3251  -23.0559 H   0  0  0  0  0  0  0  0  0  0  0  0
  -13.3719    0.9096  -24.4700 H   0  0  0  0  0  0  0  0  0  0  0  0
   -9.1415   -1.0808  -24.9598 H   0  0  0  0  0  0  0  0  0  0  0  0
   -8.6212    0.3352  -23.9846 H   0  0  0  0  0  0  0  0  0  0  0  0
  -11.8167   -2.7224  -21.4732 H   0  0  0  0  0  0  0  0  0  0  0  0
   -9.3565   -2.1937  -23.0028 H   0  0  0  0  0  0  0  0  0  0  0  0
   -5.5853   -3.5588  -21.5162 H   0  0  0  0  0  0  0  0  0  0  0  0
   -5.9028   -2.4819  -20.1140 H   0  0  0  0  0  0  0  0  0  0  0  0
   -6.1708   -4.8920  -19.4741 H   0  0  0  0  0  0  0  0  0  0  0  0
   -7.7341   -4.0162  -19.3503 H   0  0  0  0  0  0  0  0  0  0  0  0
   -7.4165   -5.0931  -20.7525 H   0  0  0  0  0  0  0  0  0  0  0  0
   -8.4567   -1.4581  -18.4671 H   0  0  0  0  0  0  0  0  0  0  0  0
   -5.7428    1.3203  -17.0552 H   0  0  0  0  0  0  0  0  0  0  0  0
   -4.2104    2.5594  -18.6076 H   0  0  0  0  0  0  0  0  0  0  0  0
   -3.4237    2.9754  -20.8747 H   0  0  0  0  0  0  0  0  0  0  0  0
   -4.3705    1.7362  -22.7749 H   0  0  0  0  0  0  0  0  0  0  0  0
   -6.1176    0.0771  -22.4292 H   0  0  0  0  0  0  0  0  0  0  0  0
  1  2  1  0
  2  3  2  0
  2  8  1  0
  3  4  1  0
  3 28  1  0
  4  5  2  0
  4 29  1  0
  5  6  1  0
  5  9  1  0
  6  7  1  0
  7 10  1  0
  7 30  1  6
  7 31  1  0
  8  9  2  0
  8 32  1  0
  9 10  1  0
 10 11  1  0
 10 33  1  6
 11 12  2  0
 11 13  1  0
 13 14  1  0
 13 18  1  0
 14 15  2  0
 14 16  1  0
 16 17  1  0
 16 34  1  6
 16 35  1  0
 17 36  1  1
 17 37  1  0
 17 38  1  0
 18 19  2  0
 18 23  1  0
 19 20  1  0
 19 39  1  0
 20 21  2  0
 21 22  1  0
 21 40  1  0
 22 23  2  0
 22 24  1  0
 23 27  1  0
 24 25  2  0
 24 41  1  0
 25 26  1  0
 25 42  1  0
 26 27  2  0
 26 43  1  0
 27 44  1  0
M  END
$$$$
