LIG(A-305)
     RDKit          3D

 36 38  0  0  0  0  0  0  0  0999 V2000
   13.5455    0.5146   23.1827 F   0  0  0  0  0  0  0  0  0  0  0  0
   12.3545   -0.0853   23.4639 C   0  0  0  0  0  0  0  0  0  0  0  0
   12.1063   -1.3263   22.9320 C   0  0  0  0  0  0  0  0  0  0  0  0
   10.9464   -1.9792   23.3073 C   0  0  0  0  0  0  0  0  0  0  0  0
   11.4937    0.5448   24.3221 C   0  0  0  0  0  0  0  0  0  0  0  0
   10.3208   -0.1031   24.6663 C   0  0  0  0  0  0  0  0  0  0  0  0
   10.0266   -1.3661   24.1564 C   0  0  0  0  0  0  0  0  0  0  0  0
    8.6956   -1.9800   24.4257 C   0  0  0  0  0  0  0  0  0  0  0  0
    8.1638   -1.8439   25.5288 O   0  0  0  0  0  0  0  0  0  0  0  0
    7.9763   -2.6970   23.3299 C   0  0  0  0  0  0  0  0  0  0  0  0
    7.8571   -2.3770   21.9569 C   0  0  0  0  0  0  0  0  0  0  0  0
    8.3660   -1.1551   21.2467 C   0  0  1  0  0  0  0  0  0  0  0  0
    7.2713   -3.8809   23.5690 N   0  0  0  0  0  0  0  0  0  0  0  0
    7.0154   -4.5278   24.7671 C   0  0  0  0  0  0  0  0  0  0  0  0
    6.2194   -5.6178   24.7853 C   0  0  0  0  0  0  0  0  0  0  0  0
    5.6651   -6.1188   23.5824 C   0  0  0  0  0  0  0  0  0  0  0  0
    5.9149   -5.5088   22.3954 C   0  0  0  0  0  0  0  0  0  0  0  0
    6.7250   -4.3439   22.3672 C   0  0  0  0  0  0  0  0  0  0  0  0
    7.0799   -3.4360   21.3541 C   0  0  0  0  0  0  0  0  0  0  0  0
    6.6986   -3.5790   19.9361 C   0  0  0  0  0  0  0  0  0  0  0  0
    5.9085   -4.4540   19.6233 O   0  0  0  0  0  0  0  0  0  0  0  0
    7.2715   -2.6481   18.8910 C   0  0  1  0  0  0  0  0  0  0  0  0
   12.7987   -1.7808   22.2388 H   0  0  0  0  0  0  0  0  0  0  0  0
   10.7510   -2.9752   22.9382 H   0  0  0  0  0  0  0  0  0  0  0  0
   11.7243    1.5220   24.7199 H   0  0  0  0  0  0  0  0  0  0  0  0
    9.6244    0.3760   25.3386 H   0  0  0  0  0  0  0  0  0  0  0  0
    8.8746   -0.4971   21.9667 H   0  0  0  0  0  0  0  0  0  0  0  0
    9.0748   -1.4562   20.4613 H   0  0  0  0  0  0  0  0  0  0  0  0
    7.5213   -0.6171   20.7917 H   0  0  0  0  0  0  0  0  0  0  0  0
    7.4519   -4.1609   25.6843 H   0  0  0  0  0  0  0  0  0  0  0  0
    6.0041   -6.1102   25.7221 H   0  0  0  0  0  0  0  0  0  0  0  0
    5.0362   -6.9964   23.6095 H   0  0  0  0  0  0  0  0  0  0  0  0
    5.5008   -5.9066   21.4807 H   0  0  0  0  0  0  0  0  0  0  0  0
    6.8626   -2.9085   17.9036 H   0  0  0  0  0  0  0  0  0  0  0  0
    7.0021   -1.6104   19.1372 H   0  0  0  0  0  0  0  0  0  0  0  0
    8.3668   -2.7480   18.8720 H   0  0  0  0  0  0  0  0  0  0  0  0
  1  2  1  0
  2  3  2  0
  2  5  1  0
  3  4  1  0
  3 23  1  0
  4  7  2  0
  4 24  1  0
  5  6  2  0
  5 25  1  0
  6  7  1  0
  6 26  1  0
  7  8  1  0
  8  9  2  0
  8 10  1  0
 10 11  2  0
 10 13  1  0
 11 12  1  0
 11 19  1  0
 12 27  1  1
 12 28  1  0
 12 29  1  0
 13 14  1  0
 13 18  1  0
 14 15  2  0
 14 30  1  0
 15 16  1  0
 15 31  1  0
 16 17  2  0
 16 32  1  0
 17 18  1  0
 17 33  1  0
 18 19  2  0
 19 20  1  0
 20 21  2  0
 20 22  1  0
 22 34  1  6
 22 35  1  0
 22 36  1  0
M  END
$$$$
