LIG(A-306)
     RDKit          3D

 44 47  0  0  1  0  0  0  0  0999 V2000
    9.4565    1.3540   21.2434 O   0  0  0  0  0  0  0  0  0  0  0  0
    9.0065    0.3189   21.7281 C   0  0  0  0  0  0  0  0  0  0  0  0
    7.8803   -0.2787   21.2758 N   0  0  0  0  0  0  0  0  0  0  0  0
    7.0738    0.1952   20.2093 C   0  0  0  0  0  0  0  0  0  0  0  0
    5.9300    0.9893   20.4357 C   0  0  0  0  0  0  0  0  0  0  0  0
    5.6022    1.4738   21.8301 C   0  0  1  0  0  0  0  0  0  0  0  0
    4.1927    2.0501   21.9708 C   0  0  1  0  0  0  0  0  0  0  0  0
    3.8225    2.9455   20.8047 C   0  0  1  0  0  0  0  0  0  0  0  0
    3.8957    2.1842   19.4954 C   0  0  1  0  0  0  0  0  0  0  0  0
    5.1703    1.3937   19.3263 C   0  0  0  0  0  0  0  0  0  0  0  0
    5.6136    1.0235   18.0691 C   0  0  0  0  0  0  0  0  0  0  0  0
    6.7118    0.2975   17.8327 N   0  0  0  0  0  0  0  0  0  0  0  0
    7.4207   -0.1122   18.8941 C   0  0  0  0  0  0  0  0  0  0  0  0
    9.6765   -0.3832   22.9116 C   0  0  1  0  0  0  0  0  0  0  0  0
   11.1851   -0.2160   22.9786 C   0  0  0  0  0  0  0  0  0  0  0  0
   11.9993   -0.9797   22.1404 C   0  0  0  0  0  0  0  0  0  0  0  0
   13.3497   -0.7010   22.0459 C   0  0  0  0  0  0  0  0  0  0  0  0
   14.3289   -1.6337   20.9486 Cl  0  0  0  0  0  0  0  0  0  0  0  0
    9.0086    0.0480   24.2286 C   0  0  1  0  0  0  0  0  0  0  0  0
    9.3611    1.4578   24.4656 N   0  0  0  0  0  0  0  0  0  0  0  0
   10.8947    1.6365   24.9855 S   0  0  1  0  0  0  0  0  0  0  0  0
   11.2264    3.0260   24.9199 O   0  0  0  0  0  0  0  0  0  0  0  0
   11.0174    0.9552   26.2391 O   0  0  0  0  0  0  0  0  0  0  0  0
   11.8036    0.7647   23.7633 C   0  0  0  0  0  0  0  0  0  0  0  0
   13.1612    1.0403   23.6549 C   0  0  0  0  0  0  0  0  0  0  0  0
   13.9361    0.3100   22.7736 C   0  0  0  0  0  0  0  0  0  0  0  0
    7.5933   -1.1223   21.7296 H   0  0  0  0  0  0  0  0  0  0  0  0
    5.7003    0.6256   22.5234 H   0  0  0  0  0  0  0  0  0  0  0  0
    6.3252    2.2565   22.1036 H   0  0  0  0  0  0  0  0  0  0  0  0
    3.4736    1.2192   22.0221 H   0  0  0  0  0  0  0  0  0  0  0  0
    4.1411    2.6377   22.8993 H   0  0  0  0  0  0  0  0  0  0  0  0
    2.7976    3.3185   20.9480 H   0  0  0  0  0  0  0  0  0  0  0  0
    4.5200    3.7952   20.7671 H   0  0  0  0  0  0  0  0  0  0  0  0
    3.0458    1.4873   19.4504 H   0  0  0  0  0  0  0  0  0  0  0  0
    3.8219    2.9061   18.6688 H   0  0  0  0  0  0  0  0  0  0  0  0
    5.0314    1.3437   17.2177 H   0  0  0  0  0  0  0  0  0  0  0  0
    8.3039   -0.7097   18.7222 H   0  0  0  0  0  0  0  0  0  0  0  0
    9.4791   -1.4591   22.7952 H   0  0  0  0  0  0  0  0  0  0  0  0
   11.5737   -1.7889   21.5654 H   0  0  0  0  0  0  0  0  0  0  0  0
    7.9166   -0.0570   24.1473 H   0  0  0  0  0  0  0  0  0  0  0  0
    9.3763   -0.5750   25.0572 H   0  0  0  0  0  0  0  0  0  0  0  0
    8.9702    2.1587   23.8690 H   0  0  0  0  0  0  0  0  0  0  0  0
   13.6076    1.8195   24.2549 H   0  0  0  0  0  0  0  0  0  0  0  0
   14.9872    0.5293   22.6576 H   0  0  0  0  0  0  0  0  0  0  0  0
  1  2  2  0
  2  3  1  0
  2 14  1  0
  3  4  1  0
  3 27  1  0
  4  5  2  0
  4 13  1  0
  5  6  1  0
  5 10  1  0
  6  7  1  0
  6 28  1  1
  6 29  1  0
  7  8  1  0
  7 30  1  1
  7 31  1  0
  8  9  1  0
  8 32  1  1
  8 33  1  0
  9 10  1  0
  9 34  1  1
  9 35  1  0
 10 11  2  0
 11 12  1  0
 11 36  1  0
 12 13  2  0
 13 37  1  0
 14 15  1  0
 14 19  1  0
 14 38  1  6
 15 16  2  0
 15 24  1  0
 16 17  1  0
 16 39  1  0
 17 18  1  0
 17 26  2  0
 19 20  1  0
 19 40  1  6
 19 41  1  0
 21 20  1  6
 20 42  1  0
 21 22  2  0
 21 23  2  0
 21 24  1  0
 24 25  2  0
 25 26  1  0
 25 43  1  0
 26 44  1  0
M  END
$$$$
