LIG(A-305)
     RDKit          3D

 28 28  0  0  1  0  0  0  0  0999 V2000
    9.7441    1.0289   21.1050 O   0  0  0  0  0  0  0  0  0  0  0  0
    9.1851    0.0579   21.6080 C   0  0  0  0  0  0  0  0  0  0  0  0
    9.8340   -0.7041   22.7590 C   0  0  2  0  0  0  0  0  0  0  0  0
   10.9291    0.0529   23.3030 O   0  0  0  0  0  0  0  0  0  0  0  0
   10.6211    0.8339   24.3560 C   0  0  1  0  0  0  0  0  0  0  0  0
   10.9251    0.1049   25.4360 F   0  0  0  0  0  0  0  0  0  0  0  0
   11.4401    1.8979   24.2040 F   0  0  0  0  0  0  0  0  0  0  0  0
   10.4230   -2.0241   22.3150 C   0  0  1  0  0  0  0  0  0  0  0  0
    7.9580   -0.3890   21.2480 N   0  0  0  0  0  0  0  0  0  0  0  0
    7.1561    0.0850   20.1820 C   0  0  0  0  0  0  0  0  0  0  0  0
    5.9211    0.7010   20.4550 C   0  0  0  0  0  0  0  0  0  0  0  0
    5.4371    0.9330   21.8630 C   0  0  1  0  0  0  0  0  0  0  0  0
    5.1471    1.0941   19.3670 C   0  0  0  0  0  0  0  0  0  0  0  0
    5.6101    0.8701   18.0850 C   0  0  0  0  0  0  0  0  0  0  0  0
    6.7890    0.3060   17.8120 N   0  0  0  0  0  0  0  0  0  0  0  0
    7.5410   -0.0770   18.8490 C   0  0  0  0  0  0  0  0  0  0  0  0
    9.0781   -0.8897   23.5362 H   0  0  0  0  0  0  0  0  0  0  0  0
    9.5622    1.1317   24.3468 H   0  0  0  0  0  0  0  0  0  0  0  0
   10.8770   -2.5326   23.1784 H   0  0  0  0  0  0  0  0  0  0  0  0
    9.6281   -2.6568   21.8933 H   0  0  0  0  0  0  0  0  0  0  0  0
   11.1924   -1.8433   21.5499 H   0  0  0  0  0  0  0  0  0  0  0  0
    7.5773   -1.1349   21.7946 H   0  0  0  0  0  0  0  0  0  0  0  0
    6.1537    1.5747   22.3966 H   0  0  0  0  0  0  0  0  0  0  0  0
    4.4537    1.4253   21.8361 H   0  0  0  0  0  0  0  0  0  0  0  0
    5.3501   -0.0317   22.3844 H   0  0  0  0  0  0  0  0  0  0  0  0
    4.1909    1.5710   19.5241 H   0  0  0  0  0  0  0  0  0  0  0  0
    4.9835    1.1678   17.2573 H   0  0  0  0  0  0  0  0  0  0  0  0
    8.4971   -0.5361   18.6452 H   0  0  0  0  0  0  0  0  0  0  0  0
  1  2  2  0
  2  3  1  0
  2  9  1  0
  3  4  1  0
  3  8  1  0
  3 17  1  1
  4  5  1  0
  5  6  1  0
  5  7  1  0
  5 18  1  1
  8 19  1  1
  8 20  1  0
  8 21  1  0
  9 10  1  0
  9 22  1  0
 10 11  2  0
 10 16  1  0
 11 12  1  0
 11 13  1  0
 12 23  1  1
 12 24  1  0
 12 25  1  0
 13 14  2  0
 13 26  1  0
 14 15  1  0
 14 27  1  0
 15 16  2  0
 16 28  1  0
M  END
$$$$
