LIG(A-305)
     RDKit          3D

 18 19  0  0  0  0  0  0  0  0999 V2000
    5.7539   -3.3963   23.5284 C   0  0  0  0  0  0  0  0  0  0  0  0
    5.9927   -4.1403   22.3544 C   0  0  0  0  0  0  0  0  0  0  0  0
    5.2775   -5.3772   22.4904 C   0  0  0  0  0  0  0  0  0  0  0  0
    6.2323   -4.9843   19.5694 O   0  0  0  0  0  0  0  0  0  0  0  0
    6.3941   -2.1864   23.7774 C   0  0  0  0  0  0  0  0  0  0  0  0
    4.9078   -4.1412   24.3155 N   0  0  0  0  0  0  0  0  0  0  0  0
    7.5689   -2.4306   21.6823 C   0  0  0  0  0  0  0  0  0  0  0  0
    6.8967   -3.6235   21.4103 C   0  0  0  0  0  0  0  0  0  0  0  0
    7.3151   -1.7225   22.8493 C   0  0  0  0  0  0  0  0  0  0  0  0
    7.0475   -4.2545   20.0693 C   0  0  0  0  0  0  0  0  0  0  0  0
    4.6376   -5.3291   23.6845 C   0  0  0  0  0  0  0  0  0  0  0  0
    5.2537   -6.1894   21.7789 H   0  0  0  0  0  0  0  0  0  0  0  0
    6.1790   -1.6214   24.6723 H   0  0  0  0  0  0  0  0  0  0  0  0
    4.5599   -3.8722   25.2136 H   0  0  0  0  0  0  0  0  0  0  0  0
    8.2948   -2.0541   20.9768 H   0  0  0  0  0  0  0  0  0  0  0  0
    7.8415   -0.7984   23.0371 H   0  0  0  0  0  0  0  0  0  0  0  0
    7.9467   -4.0430   19.5099 H   0  0  0  0  0  0  0  0  0  0  0  0
    4.0073   -6.1114   24.0810 H   0  0  0  0  0  0  0  0  0  0  0  0
  1  2  2  0
  1  5  1  0
  1  6  1  0
  2  3  1  0
  2  8  1  0
  3 11  2  0
  3 12  1  0
  4 10  2  0
  5  9  2  0
  5 13  1  0
  6 11  1  0
  6 14  1  0
  7  8  2  0
  7  9  1  0
  7 15  1  0
  8 10  1  0
  9 16  1  0
 10 17  1  0
 11 18  1  0
M  END
$$$$
