LIG(A-306)
     RDKit          3D

 34 36  0  0  0  0  0  0  0  0999 V2000
    9.0098    0.8404   21.0818 O   0  0  0  0  0  0  0  0  0  0  0  0
    8.4661   -0.1907   21.4768 C   0  0  0  0  0  0  0  0  0  0  0  0
    9.0595   -1.0456   22.5777 C   0  0  1  0  0  0  0  0  0  0  0  0
   10.5125   -0.7293   22.8425 C   0  0  0  0  0  0  0  0  0  0  0  0
   11.5185   -1.4130   22.1763 C   0  0  0  0  0  0  0  0  0  0  0  0
   12.8525   -1.1237   22.4021 C   0  0  0  0  0  0  0  0  0  0  0  0
   10.8714    0.2568   23.7535 C   0  0  0  0  0  0  0  0  0  0  0  0
   12.2003    0.5591   23.9943 C   0  0  0  0  0  0  0  0  0  0  0  0
   13.1574   -0.1467   23.3131 C   0  0  0  0  0  0  0  0  0  0  0  0
   14.4634    0.0886   23.5990 F   0  0  0  0  0  0  0  0  0  0  0  0
    7.3052   -0.6590   20.9790 N   0  0  0  0  0  0  0  0  0  0  0  0
    6.5619   -0.1241   19.9171 C   0  0  0  0  0  0  0  0  0  0  0  0
    5.4517    0.7227   20.2203 C   0  0  0  0  0  0  0  0  0  0  0  0
    4.9709    0.9555   21.5374 C   0  0  0  0  0  0  0  0  0  0  0  0
    3.9147    1.7932   21.7616 C   0  0  0  0  0  0  0  0  0  0  0  0
    3.2834    2.4351   20.7027 C   0  0  0  0  0  0  0  0  0  0  0  0
    3.7023    2.2343   19.4186 C   0  0  0  0  0  0  0  0  0  0  0  0
    4.7944    1.3735   19.1414 C   0  0  0  0  0  0  0  0  0  0  0  0
    5.2793    1.1307   17.8323 C   0  0  0  0  0  0  0  0  0  0  0  0
    6.3044    0.3360   17.5511 N   0  0  0  0  0  0  0  0  0  0  0  0
    6.9167   -0.2719   18.5760 C   0  0  0  0  0  0  0  0  0  0  0  0
    8.4882   -0.8753   23.5021 H   0  0  0  0  0  0  0  0  0  0  0  0
    8.9772   -2.1028   22.2853 H   0  0  0  0  0  0  0  0  0  0  0  0
   11.2559   -2.1853   21.4684 H   0  0  0  0  0  0  0  0  0  0  0  0
   13.6320   -1.6534   21.8748 H   0  0  0  0  0  0  0  0  0  0  0  0
   10.1000    0.7966   24.2827 H   0  0  0  0  0  0  0  0  0  0  0  0
   12.4754    1.3296   24.6993 H   0  0  0  0  0  0  0  0  0  0  0  0
    6.9324   -1.4783   21.4147 H   0  0  0  0  0  0  0  0  0  0  0  0
    5.4468    0.4635   22.3727 H   0  0  0  0  0  0  0  0  0  0  0  0
    3.5674    1.9580   22.7708 H   0  0  0  0  0  0  0  0  0  0  0  0
    2.4540    3.0988   20.8972 H   0  0  0  0  0  0  0  0  0  0  0  0
    3.1969    2.7358   18.6065 H   0  0  0  0  0  0  0  0  0  0  0  0
    4.7826    1.6242   17.0101 H   0  0  0  0  0  0  0  0  0  0  0  0
    7.7462   -0.9246   18.3472 H   0  0  0  0  0  0  0  0  0  0  0  0
  1  2  2  0
  2  3  1  0
  2 11  1  0
  3  4  1  0
  3 22  1  1
  3 23  1  0
  4  5  2  0
  4  7  1  0
  5  6  1  0
  5 24  1  0
  6  9  2  0
  6 25  1  0
  7  8  2  0
  7 26  1  0
  8  9  1  0
  8 27  1  0
  9 10  1  0
 11 12  1  0
 11 28  1  0
 12 13  2  0
 12 21  1  0
 13 14  1  0
 13 18  1  0
 14 15  2  0
 14 29  1  0
 15 16  1  0
 15 30  1  0
 16 17  2  0
 16 31  1  0
 17 18  1  0
 17 32  1  0
 18 19  2  0
 19 20  1  0
 19 33  1  0
 20 21  2  0
 21 34  1  0
M  END
$$$$
