LIG(A-305)
     RDKit          3D

 30 31  0  0  0  0  0  0  0  0999 V2000
    7.0559   -2.9937   21.1073 N   0  0  0  0  0  0  0  0  0  0  0  0
    7.5298   -2.6017   18.6983 C   0  0  1  0  0  0  0  0  0  0  0  0
    5.9758   -4.1887   19.5544 O   0  0  0  0  0  0  0  0  0  0  0  0
    6.8028   -3.3237   19.8223 C   0  0  0  0  0  0  0  0  0  0  0  0
    9.3692    0.4493   26.2741 C   0  0  0  0  0  0  0  0  0  0  0  0
    6.3979   -3.7267   22.1934 C   0  0  1  0  0  0  0  0  0  0  0  0
    7.3710   -4.0857   23.2943 C   0  0  1  0  0  0  0  0  0  0  0  0
    8.7780   -2.2177   22.7252 C   0  0  1  0  0  0  0  0  0  0  0  0
    7.8739   -1.8597   21.5603 C   0  0  1  0  0  0  0  0  0  0  0  0
    7.4621   -2.1717   24.8193 C   0  0  0  0  0  0  0  0  0  0  0  0
    8.3082   -1.3777   25.6772 C   0  0  0  0  0  0  0  0  0  0  0  0
    8.9382   -1.6666   26.8372 C   0  0  0  0  0  0  0  0  0  0  0  0
    9.6293   -0.4987   27.2371 C   0  0  0  0  0  0  0  0  0  0  0  0
    8.0110   -2.8677   23.7913 N   0  0  0  0  0  0  0  0  0  0  0  0
    6.2611   -2.2416   25.0694 O   0  0  0  0  0  0  0  0  0  0  0  0
    8.5562   -0.0787   25.3182 O   0  0  0  0  0  0  0  0  0  0  0  0
    7.1830   -2.9887   17.7287 H   0  0  0  0  0  0  0  0  0  0  0  0
    7.3199   -1.5236   18.7591 H   0  0  0  0  0  0  0  0  0  0  0  0
    8.6125   -2.7705   18.7942 H   0  0  0  0  0  0  0  0  0  0  0  0
    9.7522    1.4592   26.2763 H   0  0  0  0  0  0  0  0  0  0  0  0
    5.5988   -3.0990   22.6144 H   0  0  0  0  0  0  0  0  0  0  0  0
    5.9622   -4.6513   21.7869 H   0  0  0  0  0  0  0  0  0  0  0  0
    6.8304   -4.5781   24.1162 H   0  0  0  0  0  0  0  0  0  0  0  0
    8.1376   -4.7683   22.8988 H   0  0  0  0  0  0  0  0  0  0  0  0
    9.5641   -2.9032   22.3757 H   0  0  0  0  0  0  0  0  0  0  0  0
    9.2400   -1.3006   23.1196 H   0  0  0  0  0  0  0  0  0  0  0  0
    8.4990   -1.5195   20.7214 H   0  0  0  0  0  0  0  0  0  0  0  0
    7.2040   -1.0450   21.8723 H   0  0  0  0  0  0  0  0  0  0  0  0
    8.9181   -2.6112   27.3604 H   0  0  0  0  0  0  0  0  0  0  0  0
   10.2383   -0.3758   28.1205 H   0  0  0  0  0  0  0  0  0  0  0  0
  1  4  1  0
  1  6  1  0
  1  9  1  0
  2  4  1  0
  2 17  1  6
  2 18  1  0
  2 19  1  0
  3  4  2  0
  5 13  2  0
  5 16  1  0
  5 20  1  0
  6  7  1  0
  6 21  1  1
  6 22  1  0
  7 14  1  0
  7 23  1  1
  7 24  1  0
  8  9  1  0
  8 14  1  0
  8 25  1  6
  8 26  1  0
  9 27  1  6
  9 28  1  0
 10 11  1  0
 10 14  1  0
 10 15  2  0
 11 12  2  0
 11 16  1  0
 12 13  1  0
 12 29  1  0
 13 30  1  0
M  END
$$$$
