LIG(A-306)
     RDKit          3D

 55 58  0  0  1  0  0  0  0  0999 V2000
   10.7323    3.1726   24.4182 O   0  0  0  0  0  0  0  0  0  0  0  0
   10.3566    2.0305   24.2232 C   0  0  0  0  0  0  0  0  0  0  0  0
    9.0546    1.6492   24.4222 N   0  0  0  0  0  0  0  0  0  0  0  0
    8.1294    2.5530   25.0802 C   0  0  1  0  0  0  0  0  0  0  0  0
    7.5612    3.7129   24.2792 C   0  0  0  0  0  0  0  0  0  0  0  0
    6.9490    4.6167   24.8423 O   0  0  0  0  0  0  0  0  0  0  0  0
    7.7382    3.6900   22.9632 N   0  0  0  0  0  0  0  0  0  0  0  0
    7.0600    4.6168   22.0753 C   0  0  1  0  0  0  0  0  0  0  0  0
   11.2388    1.0377   23.5991 C   0  0  0  0  0  0  0  0  0  0  0  0
   12.5947    1.3360   23.4561 C   0  0  0  0  0  0  0  0  0  0  0  0
   13.4329    0.4752   22.7751 C   0  0  0  0  0  0  0  0  0  0  0  0
   12.9151   -0.6869   22.2511 C   0  0  0  0  0  0  0  0  0  0  0  0
   13.9784   -1.7836   21.4200 Cl  0  0  0  0  0  0  0  0  0  0  0  0
   11.5732   -1.0032   22.3621 C   0  0  0  0  0  0  0  0  0  0  0  0
   10.7100   -0.1224   23.0191 C   0  0  0  0  0  0  0  0  0  0  0  0
    9.2141   -0.3557   22.9921 C   0  0  1  0  0  0  0  0  0  0  0  0
    8.5749    0.2781   24.2281 C   0  0  2  0  0  0  0  0  0  0  0  0
    8.6369    0.3232   21.7451 C   0  0  0  0  0  0  0  0  0  0  0  0
    9.0367    1.4213   21.3522 O   0  0  0  0  0  0  0  0  0  0  0  0
    7.6240   -0.3510   21.1431 N   0  0  0  0  0  0  0  0  0  0  0  0
    6.8489    0.0508   20.0241 C   0  0  0  0  0  0  0  0  0  0  0  0
    5.7078    0.8796   20.2572 C   0  0  0  0  0  0  0  0  0  0  0  0
    5.0006    1.3865   19.1262 C   0  0  0  0  0  0  0  0  0  0  0  0
    5.4527    0.9986   17.8402 C   0  0  0  0  0  0  0  0  0  0  0  0
    6.4909    0.2008   17.6241 N   0  0  0  0  0  0  0  0  0  0  0  0
    7.1620   -0.2470   18.6971 C   0  0  0  0  0  0  0  0  0  0  0  0
    5.2317    1.2134   21.5492 C   0  0  0  0  0  0  0  0  0  0  0  0
    4.1345    2.0042   21.7202 C   0  0  0  0  0  0  0  0  0  0  0  0
    3.4724    2.5161   20.6132 C   0  0  0  0  0  0  0  0  0  0  0  0
    3.8775    2.2232   19.3362 C   0  0  0  0  0  0  0  0  0  0  0  0
    2.1512    3.6668   20.8503 S   0  0  1  0  0  0  0  0  0  0  0  0
    2.7189    4.9159   21.2743 O   0  0  0  0  0  0  0  0  0  0  0  0
    1.3372    3.6677   19.6673 O   0  0  0  0  0  0  0  0  0  0  0  0
    1.2183    3.0056   22.1743 C   0  0  1  0  0  0  0  0  0  0  0  0
    7.2780    1.9501   25.4288 H   0  0  0  0  0  0  0  0  0  0  0  0
    8.6542    2.9819   25.9466 H   0  0  0  0  0  0  0  0  0  0  0  0
    8.3593    3.0116   22.5709 H   0  0  0  0  0  0  0  0  0  0  0  0
    7.3567    4.4132   21.0358 H   0  0  0  0  0  0  0  0  0  0  0  0
    5.9718    4.4921   22.1769 H   0  0  0  0  0  0  0  0  0  0  0  0
    7.3371    5.6478   22.3404 H   0  0  0  0  0  0  0  0  0  0  0  0
   12.9912    2.2463   23.8809 H   0  0  0  0  0  0  0  0  0  0  0  0
   14.4800    0.7109   22.6555 H   0  0  0  0  0  0  0  0  0  0  0  0
   11.1952   -1.9244   21.9438 H   0  0  0  0  0  0  0  0  0  0  0  0
    8.9977   -1.4340   22.9672 H   0  0  0  0  0  0  0  0  0  0  0  0
    7.4825    0.2938   24.1003 H   0  0  0  0  0  0  0  0  0  0  0  0
    8.8319   -0.3217   25.1137 H   0  0  0  0  0  0  0  0  0  0  0  0
    7.3956   -1.2414   21.5370 H   0  0  0  0  0  0  0  0  0  0  0  0
    4.9181    1.3764   16.9812 H   0  0  0  0  0  0  0  0  0  0  0  0
    8.0119   -0.8891   18.5192 H   0  0  0  0  0  0  0  0  0  0  0  0
    5.7493    0.8331   22.4175 H   0  0  0  0  0  0  0  0  0  0  0  0
    3.7813    2.2318   22.7151 H   0  0  0  0  0  0  0  0  0  0  0  0
    3.3408    2.6300   18.4920 H   0  0  0  0  0  0  0  0  0  0  0  0
    0.3666    3.6674   22.3899 H   0  0  0  0  0  0  0  0  0  0  0  0
    0.8465    2.0078   21.8983 H   0  0  0  0  0  0  0  0  0  0  0  0
    1.8554    2.9254   23.0674 H   0  0  0  0  0  0  0  0  0  0  0  0
  1  2  2  0
  2  3  1  0
  2  9  1  0
  3  4  1  0
  3 17  1  0
  4  5  1  0
  4 35  1  1
  4 36  1  0
  5  6  2  0
  5  7  1  0
  7  8  1  0
  7 37  1  0
  8 38  1  6
  8 39  1  0
  8 40  1  0
  9 10  2  0
  9 15  1  0
 10 11  1  0
 10 41  1  0
 11 12  2  0
 11 42  1  0
 12 13  1  0
 12 14  1  0
 14 15  2  0
 14 43  1  0
 15 16  1  0
 16 17  1  0
 16 18  1  0
 16 44  1  6
 17 45  1  6
 17 46  1  0
 18 19  2  0
 18 20  1  0
 20 21  1  0
 20 47  1  0
 21 22  2  0
 21 26  1  0
 22 23  1  0
 22 27  1  0
 23 24  2  0
 23 30  1  0
 24 25  1  0
 24 48  1  0
 25 26  2  0
 26 49  1  0
 27 28  2  0
 27 50  1  0
 28 29  1  0
 28 51  1  0
 29 30  2  0
 31 29  1  6
 30 52  1  0
 31 32  2  0
 31 33  2  0
 31 34  1  0
 34 53  1  1
 34 54  1  0
 34 55  1  0
M  END
$$$$
