LIG(A-305)
     RDKit          3D

 38 39  0  0  1  0  0  0  0  0999 V2000
    7.7783   -3.0874   23.4824 N   0  0  1  0  0  0  0  0  0  0  0  0
    6.6061    0.6606   17.4814 N   0  0  0  0  0  0  0  0  0  0  0  0
    5.4352    1.1887   17.8555 C   0  0  0  0  0  0  0  0  0  0  0  0
    9.2256   -0.4405   23.8232 C   0  0  0  0  0  0  0  0  0  0  0  0
    6.1682   -2.1833   21.5965 O   0  0  0  0  0  0  0  0  0  0  0  0
    7.3152   -1.7584   21.5124 C   0  0  0  0  0  0  0  0  0  0  0  0
   10.2357    0.3614   24.3461 C   0  0  0  0  0  0  0  0  0  0  0  0
    9.5024   -1.3986   22.8432 C   0  0  0  0  0  0  0  0  0  0  0  0
   10.8173   -1.5257   22.3921 C   0  0  0  0  0  0  0  0  0  0  0  0
   11.8145   -0.7478   22.9480 C   0  0  0  0  0  0  0  0  0  0  0  0
    5.7853    0.6717   20.1725 C   0  0  0  0  0  0  0  0  0  0  0  0
    7.3721    0.1216   18.4374 C   0  0  0  0  0  0  0  0  0  0  0  0
    7.0112    0.0736   19.7854 C   0  0  0  0  0  0  0  0  0  0  0  0
    4.9913    1.2118   19.1646 C   0  0  0  0  0  0  0  0  0  0  0  0
    5.4455    0.9428   21.6165 C   0  0  1  0  0  0  0  0  0  0  0  0
    7.5138    0.7536   25.0054 C   0  0  1  0  0  0  0  0  0  0  0  0
    7.7232   -0.8384   20.6094 N   0  0  0  0  0  0  0  0  0  0  0  0
    7.9136   -0.3614   24.2093 O   0  0  0  0  0  0  0  0  0  0  0  0
    8.4293   -2.3755   22.3733 C   0  0  1  0  0  0  0  0  0  0  0  0
   13.6314   -1.1079   22.4958 Br  0  0  0  0  0  0  0  0  0  0  0  0
   11.5386    0.2033   23.9060 C   0  0  0  0  0  0  0  0  0  0  0  0
    8.0798   -2.6971   24.3523 H   0  0  0  0  0  0  0  0  0  0  0  0
    6.7859   -2.9941   23.4014 H   0  0  0  0  0  0  0  0  0  0  0  0
    8.0260   -4.0557   23.4479 H   0  0  0  0  0  0  0  0  0  0  0  0
    4.8026    1.6203   17.0939 H   0  0  0  0  0  0  0  0  0  0  0  0
   10.0035    1.1055   25.0936 H   0  0  0  0  0  0  0  0  0  0  0  0
   11.0548   -2.2312   21.6096 H   0  0  0  0  0  0  0  0  0  0  0  0
    8.3238   -0.3004   18.1497 H   0  0  0  0  0  0  0  0  0  0  0  0
    4.0323    1.6470   19.4044 H   0  0  0  0  0  0  0  0  0  0  0  0
    6.1951    1.6218   22.0490 H   0  0  0  0  0  0  0  0  0  0  0  0
    4.4506    1.4081   21.6778 H   0  0  0  0  0  0  0  0  0  0  0  0
    5.4424   -0.0041   22.1764 H   0  0  0  0  0  0  0  0  0  0  0  0
    6.4404    0.6762   25.2330 H   0  0  0  0  0  0  0  0  0  0  0  0
    8.0879    0.7588   25.9436 H   0  0  0  0  0  0  0  0  0  0  0  0
    7.7052    1.6856   24.4532 H   0  0  0  0  0  0  0  0  0  0  0  0
    8.7162   -0.7911   20.5008 H   0  0  0  0  0  0  0  0  0  0  0  0
    8.9334   -3.1269   21.7479 H   0  0  0  0  0  0  0  0  0  0  0  0
   12.3297    0.8182   24.3089 H   0  0  0  0  0  0  0  0  0  0  0  0
  1 19  1  0
  1 22  1  1
  1 23  1  0
  1 24  1  0
  2  3  2  0
  2 12  1  0
  3 14  1  0
  3 25  1  0
  4  7  2  0
  4  8  1  0
  4 18  1  0
  5  6  2  0
  6 17  1  0
  6 19  1  0
  7 21  1  0
  7 26  1  0
  8  9  2  0
  8 19  1  0
  9 10  1  0
  9 27  1  0
 10 20  1  0
 10 21  2  0
 11 13  1  0
 11 14  2  0
 11 15  1  0
 12 13  2  0
 12 28  1  0
 13 17  1  0
 14 29  1  0
 15 30  1  1
 15 31  1  0
 15 32  1  0
 16 18  1  0
 16 33  1  1
 16 34  1  0
 16 35  1  0
 17 36  1  0
 19 37  1  6
 21 38  1  0
M  CHG  1   1   1
M  END
$$$$
