LIG(A-305)
     RDKit          3D

 49 50  0  0  1  0  0  0  0  0999 V2000
    7.3330   -1.7377   21.4541 N   0  0  0  0  0  0  0  0  0  0  0  0
    8.1231   -0.6968   20.7461 C   0  0  1  0  0  0  0  0  0  0  0  0
    7.1731   -0.0687   19.7431 C   0  0  0  0  0  0  0  0  0  0  0  0
    6.0072    0.5493   20.1581 C   0  0  0  0  0  0  0  0  0  0  0  0
    5.1742    1.1484   19.2351 C   0  0  0  0  0  0  0  0  0  0  0  0
    5.5442    1.1184   17.9111 C   0  0  0  0  0  0  0  0  0  0  0  0
    6.6691    0.5503   17.4771 N   0  0  0  0  0  0  0  0  0  0  0  0
    7.4511   -0.0337   18.3871 C   0  0  0  0  0  0  0  0  0  0  0  0
    8.8242    0.3722   21.6021 C   0  0  0  0  0  0  0  0  0  0  0  0
    9.6772    1.1071   21.1210 O   0  0  0  0  0  0  0  0  0  0  0  0
    8.3812    0.4552   22.8631 N   0  0  0  0  0  0  0  0  0  0  0  0
    8.9642    1.2992   23.9291 C   0  0  1  0  0  0  0  0  0  0  0  0
    8.1603    1.0812   25.2031 C   0  0  1  0  0  0  0  0  0  0  0  0
   10.4142    0.8861   24.1430 C   0  0  1  0  0  0  0  0  0  0  0  0
    8.8803    2.7582   23.4961 C   0  0  1  0  0  0  0  0  0  0  0  0
    7.9460   -2.7258   22.2921 C   0  0  0  0  0  0  0  0  0  0  0  0
    7.1659   -3.6787   22.9381 C   0  0  0  0  0  0  0  0  0  0  0  0
    7.7459   -4.5668   23.8291 C   0  0  0  0  0  0  0  0  0  0  0  0
    9.1059   -4.5148   24.1131 C   0  0  0  0  0  0  0  0  0  0  0  0
    9.8800   -3.5809   23.4390 C   0  0  0  0  0  0  0  0  0  0  0  0
    9.3170   -2.7038   22.5301 C   0  0  0  0  0  0  0  0  0  0  0  0
    9.7119   -5.3949   25.1850 C   0  0  1  0  0  0  0  0  0  0  0  0
    9.3009   -4.8738   26.5741 C   0  0  1  0  0  0  0  0  0  0  0  0
    8.0759   -5.5018   27.0741 C   0  0  0  0  0  0  0  0  0  0  0  0
    7.1329   -6.0287   27.4471 N   0  0  0  0  0  0  0  0  0  0  0  0
    6.3484   -1.5912   21.5496 H   0  0  0  0  0  0  0  0  0  0  0  0
    8.9076   -1.2108   20.1713 H   0  0  0  0  0  0  0  0  0  0  0  0
    5.7483    0.5631   21.2065 H   0  0  0  0  0  0  0  0  0  0  0  0
    4.2570    1.6275   19.5442 H   0  0  0  0  0  0  0  0  0  0  0  0
    4.8897    1.5787   17.1857 H   0  0  0  0  0  0  0  0  0  0  0  0
    8.3582   -0.5092   18.0443 H   0  0  0  0  0  0  0  0  0  0  0  0
    7.5869   -0.1019   23.1053 H   0  0  0  0  0  0  0  0  0  0  0  0
    8.5773    1.7005   26.0109 H   0  0  0  0  0  0  0  0  0  0  0  0
    7.1119    1.3646   25.0279 H   0  0  0  0  0  0  0  0  0  0  0  0
    8.2102    0.0208   25.4911 H   0  0  0  0  0  0  0  0  0  0  0  0
   10.8600    1.5069   24.9342 H   0  0  0  0  0  0  0  0  0  0  0  0
   10.4538   -0.1719   24.4413 H   0  0  0  0  0  0  0  0  0  0  0  0
   10.9766    1.0247   23.2079 H   0  0  0  0  0  0  0  0  0  0  0  0
    9.3107    3.3991   24.2796 H   0  0  0  0  0  0  0  0  0  0  0  0
    9.4422    2.8957   22.5604 H   0  0  0  0  0  0  0  0  0  0  0  0
    7.8273    3.0328   23.3352 H   0  0  0  0  0  0  0  0  0  0  0  0
    6.1045   -3.7266   22.7445 H   0  0  0  0  0  0  0  0  0  0  0  0
    7.1311   -5.3122   24.3114 H   0  0  0  0  0  0  0  0  0  0  0  0
   10.9425   -3.5381   23.6280 H   0  0  0  0  0  0  0  0  0  0  0  0
    9.9434   -1.9995   22.0030 H   0  0  0  0  0  0  0  0  0  0  0  0
    9.3507   -6.4262   25.0594 H   0  0  0  0  0  0  0  0  0  0  0  0
   10.8082   -5.3769   25.0969 H   0  0  0  0  0  0  0  0  0  0  0  0
   10.1165   -5.0802   27.2826 H   0  0  0  0  0  0  0  0  0  0  0  0
    9.1382   -3.7879   26.5085 H   0  0  0  0  0  0  0  0  0  0  0  0
  1  2  1  0
  1 16  1  0
  1 26  1  0
  2  3  1  0
  2  9  1  0
  2 27  1  6
  3  4  2  0
  3  8  1  0
  4  5  1  0
  4 28  1  0
  5  6  2  0
  5 29  1  0
  6  7  1  0
  6 30  1  0
  7  8  2  0
  8 31  1  0
  9 10  2  0
  9 11  1  0
 12 11  1  6
 11 32  1  0
 12 13  1  0
 12 14  1  0
 12 15  1  0
 13 33  1  1
 13 34  1  0
 13 35  1  0
 14 36  1  1
 14 37  1  0
 14 38  1  0
 15 39  1  1
 15 40  1  0
 15 41  1  0
 16 17  2  0
 16 21  1  0
 17 18  1  0
 17 42  1  0
 18 19  2  0
 18 43  1  0
 19 20  1  0
 19 22  1  0
 20 21  2  0
 20 44  1  0
 21 45  1  0
 22 23  1  0
 22 46  1  6
 22 47  1  0
 23 24  1  0
 23 48  1  1
 23 49  1  0
 24 25  3  0
M  END
$$$$
