LIG(A-305)
     RDKit          3D

 36 38  0  0  1  0  0  0  0  0999 V2000
   13.8078   -1.6325   21.2271 Cl  0  0  0  0  0  0  0  0  0  0  0  0
   12.7098   -0.9525   22.3961 C   0  0  0  0  0  0  0  0  0  0  0  0
   12.9858    0.2846   22.9410 C   0  0  0  0  0  0  0  0  0  0  0  0
   12.1388    0.7846   23.9170 C   0  0  0  0  0  0  0  0  0  0  0  0
   11.0409    0.0486   24.3321 C   0  0  0  0  0  0  0  0  0  0  0  0
   11.6119   -1.6915   22.7902 C   0  0  0  0  0  0  0  0  0  0  0  0
   10.7659   -1.1945   23.7762 C   0  0  0  0  0  0  0  0  0  0  0  0
    9.5809   -2.0035   24.2463 C   0  0  1  0  0  0  0  0  0  0  0  0
    8.8689   -2.6536   23.1404 N   0  0  1  0  0  0  0  0  0  0  0  0
    7.8600   -3.6506   23.5695 C   0  0  2  0  0  0  0  0  0  0  0  0
    7.6990   -4.5837   22.3716 C   0  0  1  0  0  0  0  0  0  0  0  0
    8.1308   -1.7127   22.2803 C   0  0  1  0  0  0  0  0  0  0  0  0
    6.7979   -2.4258   22.0765 C   0  0  2  0  0  0  0  0  0  0  0  0
    6.5349   -2.8826   23.5135 C   0  0  2  0  0  0  0  0  0  0  0  0
    7.0389   -3.7128   21.3966 N   0  0  0  0  0  0  0  0  0  0  0  0
    6.6608   -4.0419   20.1446 C   0  0  0  0  0  0  0  0  0  0  0  0
    6.2209   -5.1500   19.8997 O   0  0  0  0  0  0  0  0  0  0  0  0
    6.7518   -2.9820   19.0635 C   0  0  1  0  0  0  0  0  0  0  0  0
   13.8445    0.8517   22.6135 H   0  0  0  0  0  0  0  0  0  0  0  0
   12.3353    1.7518   24.3558 H   0  0  0  0  0  0  0  0  0  0  0  0
   10.3907    0.4462   25.0974 H   0  0  0  0  0  0  0  0  0  0  0  0
   11.4111   -2.6502   22.3353 H   0  0  0  0  0  0  0  0  0  0  0  0
    9.9366   -2.7788   24.9409 H   0  0  0  0  0  0  0  0  0  0  0  0
    8.8826   -1.3342   24.7702 H   0  0  0  0  0  0  0  0  0  0  0  0
    9.5437   -3.1254   22.5729 H   0  0  0  0  0  0  0  0  0  0  0  0
    8.0623   -4.1543   24.5263 H   0  0  0  0  0  0  0  0  0  0  0  0
    8.6747   -4.9314   22.0014 H   0  0  0  0  0  0  0  0  0  0  0  0
    7.0713   -5.4516   22.6221 H   0  0  0  0  0  0  0  0  0  0  0  0
    7.9903   -0.7433   22.7810 H   0  0  0  0  0  0  0  0  0  0  0  0
    8.6498   -1.5590   21.3227 H   0  0  0  0  0  0  0  0  0  0  0  0
    6.0039   -1.8004   21.6422 H   0  0  0  0  0  0  0  0  0  0  0  0
    6.4740   -2.0549   24.2353 H   0  0  0  0  0  0  0  0  0  0  0  0
    5.6481   -3.5252   23.6168 H   0  0  0  0  0  0  0  0  0  0  0  0
    6.3739   -3.3915   18.1151 H   0  0  0  0  0  0  0  0  0  0  0  0
    6.1467   -2.1102   19.3532 H   0  0  0  0  0  0  0  0  0  0  0  0
    7.8006   -2.6752   18.9383 H   0  0  0  0  0  0  0  0  0  0  0  0
  1  2  1  0
  2  3  2  0
  2  6  1  0
  3  4  1  0
  3 19  1  0
  4  5  2  0
  4 20  1  0
  5  7  1  0
  5 21  1  0
  6  7  2  0
  6 22  1  0
  7  8  1  0
  8  9  1  0
  8 23  1  1
  8 24  1  0
  9 10  1  0
  9 12  1  0
  9 25  1  6
 10 11  1  0
 10 14  1  0
 10 26  1  1
 11 15  1  0
 11 27  1  6
 11 28  1  0
 12 13  1  0
 12 29  1  1
 12 30  1  0
 13 14  1  0
 13 15  1  0
 13 31  1  6
 14 32  1  1
 14 33  1  0
 15 16  1  0
 16 17  2  0
 16 18  1  0
 18 34  1  6
 18 35  1  0
 18 36  1  0
M  CHG  1   9   1
M  END
$$$$
