LIG(A-306)
     RDKit          3D

 45 48  0  0  1  0  0  0  0  0999 V2000
    9.1646    1.2249   21.4304 O   0  0  0  0  0  0  0  0  0  0  0  0
    8.8048    0.1251   21.8308 C   0  0  0  0  0  0  0  0  0  0  0  0
    8.1272   -0.8711   20.8865 C   0  0  1  0  0  0  0  0  0  0  0  0
    7.2792   -0.2127   19.9109 N   0  0  0  0  0  0  0  0  0  0  0  0
    6.1505    0.5238   20.1058 C   0  0  0  0  0  0  0  0  0  0  0  0
    5.4692    0.9590   21.2334 C   0  0  0  0  0  0  0  0  0  0  0  0
    4.3645    1.7777   21.0459 C   0  0  0  0  0  0  0  0  0  0  0  0
    3.9522    2.1405   19.7669 C   0  0  0  0  0  0  0  0  0  0  0  0
    4.6286    1.6863   18.6434 C   0  0  0  0  0  0  0  0  0  0  0  0
    5.7413    0.8686   18.8209 C   0  0  0  0  0  0  0  0  0  0  0  0
    6.6218    0.3179   17.9159 N   0  0  0  0  0  0  0  0  0  0  0  0
    7.5389   -0.3258   18.5825 N   0  0  0  0  0  0  0  0  0  0  0  0
    8.9841   -0.2661   23.1238 N   0  0  0  0  0  0  0  0  0  0  0  0
   10.1420    0.1175   23.9493 C   0  0  2  0  0  0  0  0  0  0  0  0
   10.0238    1.5312   24.5423 C   0  0  1  0  0  0  0  0  0  0  0  0
    8.6529    1.8444   25.1552 C   0  0  1  0  0  0  0  0  0  0  0  0
    7.8591    0.6746   25.7577 C   0  0  0  0  0  0  0  0  0  0  0  0
    7.1325   -0.2687   24.7981 C   0  0  0  0  0  0  0  0  0  0  0  0
    7.9686   -1.0709   23.8074 C   0  0  2  0  0  0  0  0  0  0  0  0
   11.4840   -0.2337   23.3386 C   0  0  0  0  0  0  0  0  0  0  0  0
   11.7089   -1.5047   22.8320 C   0  0  0  0  0  0  0  0  0  0  0  0
   12.9398   -1.8458   22.2962 C   0  0  0  0  0  0  0  0  0  0  0  0
   13.9609   -0.9257   22.2650 C   0  0  0  0  0  0  0  0  0  0  0  0
   13.7580    0.3374   22.7796 C   0  0  0  0  0  0  0  0  0  0  0  0
   12.5260    0.6854   23.3084 C   0  0  0  0  0  0  0  0  0  0  0  0
    8.9043   -1.4391   20.3541 H   0  0  0  0  0  0  0  0  0  0  0  0
    7.5118   -1.5613   21.4822 H   0  0  0  0  0  0  0  0  0  0  0  0
    5.7879    0.6702   22.2240 H   0  0  0  0  0  0  0  0  0  0  0  0
    3.8171    2.1384   21.9042 H   0  0  0  0  0  0  0  0  0  0  0  0
    3.0937    2.7845   19.6470 H   0  0  0  0  0  0  0  0  0  0  0  0
    4.2988    1.9614   17.6525 H   0  0  0  0  0  0  0  0  0  0  0  0
   10.0749   -0.5385   24.8298 H   0  0  0  0  0  0  0  0  0  0  0  0
   10.7858    1.6405   25.3280 H   0  0  0  0  0  0  0  0  0  0  0  0
   10.2172    2.2588   23.7402 H   0  0  0  0  0  0  0  0  0  0  0  0
    8.8110    2.5818   25.9559 H   0  0  0  0  0  0  0  0  0  0  0  0
    8.0325    2.2899   24.3636 H   0  0  0  0  0  0  0  0  0  0  0  0
    7.8158    0.5234   26.8262 H   0  0  0  0  0  0  0  0  0  0  0  0
    6.0570   -0.3640   24.8217 H   0  0  0  0  0  0  0  0  0  0  0  0
    8.4739   -1.8817   24.3527 H   0  0  0  0  0  0  0  0  0  0  0  0
    7.2962   -1.5014   23.0507 H   0  0  0  0  0  0  0  0  0  0  0  0
   10.9154   -2.2370   22.8555 H   0  0  0  0  0  0  0  0  0  0  0  0
   13.0981   -2.8384   21.9013 H   0  0  0  0  0  0  0  0  0  0  0  0
   14.9174   -1.1910   21.8394 H   0  0  0  0  0  0  0  0  0  0  0  0
   14.5625    1.0579   22.7703 H   0  0  0  0  0  0  0  0  0  0  0  0
   12.3739    1.6801   23.7008 H   0  0  0  0  0  0  0  0  0  0  0  0
  1  2  2  0
  2  3  1  0
  2 13  1  0
  3  4  1  0
  3 26  1  6
  3 27  1  0
  4  5  1  0
  4 12  1  0
  5  6  2  0
  5 10  1  0
  6  7  1  0
  6 28  1  0
  7  8  2  0
  7 29  1  0
  8  9  1  0
  8 30  1  0
  9 10  2  0
  9 31  1  0
 10 11  1  0
 11 12  2  0
 13 14  1  0
 13 19  1  0
 14 15  1  0
 14 20  1  0
 14 32  1  1
 15 16  1  0
 15 33  1  1
 15 34  1  0
 16 17  1  0
 16 35  1  1
 16 36  1  0
 17 18  2  0
 17 37  1  0
 18 19  1  0
 18 38  1  0
 19 39  1  1
 19 40  1  0
 20 21  2  0
 20 25  1  0
 21 22  1  0
 21 41  1  0
 22 23  2  0
 22 42  1  0
 23 24  1  0
 23 43  1  0
 24 25  2  0
 24 44  1  0
 25 45  1  0
M  END
$$$$
