LIG(A-305)
     RDKit          3D

 34 35  0  0  0  0  0  0  0  0999 V2000
    8.9639    0.2245   21.7203 C   0  0  0  0  0  0  0  0  0  0  0  0
    9.5160   -0.2635   23.0543 C   0  0  1  0  0  0  0  0  0  0  0  0
   11.0341   -0.1726   23.1191 C   0  0  2  0  0  0  0  0  0  0  0  0
   11.6839   -1.1176   22.1100 C   0  0  1  0  0  0  0  0  0  0  0  0
   12.9289   -1.8157   22.6519 C   0  0  1  0  0  0  0  0  0  0  0  0
   13.7431   -0.9857   23.6348 C   0  0  1  0  0  0  0  0  0  0  0  0
   12.9162   -0.2776   24.7029 C   0  0  1  0  0  0  0  0  0  0  0  0
   11.4182   -0.4995   24.5521 C   0  0  2  0  0  0  0  0  0  0  0  0
    7.0907    0.1085   20.1165 C   0  0  0  0  0  0  0  0  0  0  0  0
    5.8378    0.7026   20.2347 C   0  0  0  0  0  0  0  0  0  0  0  0
    5.2367    1.1356   19.0577 C   0  0  0  0  0  0  0  0  0  0  0  0
    5.9165    0.9585   17.8616 C   0  0  0  0  0  0  0  0  0  0  0  0
    7.7296   -0.0305   18.8995 C   0  0  0  0  0  0  0  0  0  0  0  0
    7.7068   -0.3285   21.3325 N   0  0  0  0  0  0  0  0  0  0  0  0
    7.1155    0.3965   17.8175 N   0  0  0  0  0  0  0  0  0  0  0  0
    9.5199    1.0175   21.0302 O   0  0  0  0  0  0  0  0  0  0  0  0
    9.0901    0.3523   23.8600 H   0  0  0  0  0  0  0  0  0  0  0  0
    9.2180   -1.3126   23.1979 H   0  0  0  0  0  0  0  0  0  0  0  0
   11.3413    0.8588   22.8914 H   0  0  0  0  0  0  0  0  0  0  0  0
   10.9486   -1.8852   21.8267 H   0  0  0  0  0  0  0  0  0  0  0  0
   11.9686   -0.5365   21.2205 H   0  0  0  0  0  0  0  0  0  0  0  0
   12.6112   -2.7372   23.1617 H   0  0  0  0  0  0  0  0  0  0  0  0
   13.5765   -2.0722   21.8005 H   0  0  0  0  0  0  0  0  0  0  0  0
   14.4566   -1.6535   24.1396 H   0  0  0  0  0  0  0  0  0  0  0  0
   14.2945   -0.2228   23.0657 H   0  0  0  0  0  0  0  0  0  0  0  0
   13.2267   -0.6519   25.6896 H   0  0  0  0  0  0  0  0  0  0  0  0
   13.1170    0.8021   24.6405 H   0  0  0  0  0  0  0  0  0  0  0  0
   11.1726   -1.5486   24.7737 H   0  0  0  0  0  0  0  0  0  0  0  0
   10.8723    0.1589   25.2438 H   0  0  0  0  0  0  0  0  0  0  0  0
    5.3557    0.8215   21.1937 H   0  0  0  0  0  0  0  0  0  0  0  0
    4.2616    1.5996   19.0746 H   0  0  0  0  0  0  0  0  0  0  0  0
    5.4562    1.2876   16.9418 H   0  0  0  0  0  0  0  0  0  0  0  0
    8.7101   -0.4793   18.8379 H   0  0  0  0  0  0  0  0  0  0  0  0
    7.2601   -1.0155   21.9054 H   0  0  0  0  0  0  0  0  0  0  0  0
  1  2  1  0
  1 14  1  0
  1 16  2  0
  2  3  1  0
  2 17  1  1
  2 18  1  0
  3  4  1  0
  3  8  1  0
  3 19  1  6
  4  5  1  0
  4 20  1  6
  4 21  1  0
  5  6  1  0
  5 22  1  1
  5 23  1  0
  6  7  1  0
  6 24  1  1
  6 25  1  0
  7  8  1  0
  7 26  1  1
  7 27  1  0
  8 28  1  1
  8 29  1  0
  9 10  2  0
  9 13  1  0
  9 14  1  0
 10 11  1  0
 10 30  1  0
 11 12  2  0
 11 31  1  0
 12 15  1  0
 12 32  1  0
 13 15  2  0
 13 33  1  0
 14 34  1  0
M  END
$$$$
