LIG(A-306)
     RDKit          3D

 59 63  0  0  1  0  0  0  0  0999 V2000
    9.5212    1.5681   21.4311 O   0  0  0  0  0  0  0  0  0  0  0  0
    9.1262    0.5011   21.8672 C   0  0  0  0  0  0  0  0  0  0  0  0
    8.0783   -0.2160   21.3762 N   0  0  0  0  0  0  0  0  0  0  0  0
    7.2232    0.1959   20.2982 C   0  0  0  0  0  0  0  0  0  0  0  0
    6.0942    1.0039   20.4943 C   0  0  0  0  0  0  0  0  0  0  0  0
    5.7722    1.5629   21.8622 C   0  0  1  0  0  0  0  0  0  0  0  0
    4.3542    2.1028   21.9733 C   0  0  1  0  0  0  0  0  0  0  0  0
    4.0071    2.9748   20.7772 C   0  0  1  0  0  0  0  0  0  0  0  0
    4.0731    2.1787   19.4943 C   0  0  1  0  0  0  0  0  0  0  0  0
    5.3231    1.3418   19.3683 C   0  0  0  0  0  0  0  0  0  0  0  0
    5.7431    0.8798   18.1353 C   0  0  0  0  0  0  0  0  0  0  0  0
    6.8301    0.1298   17.9333 N   0  0  0  0  0  0  0  0  0  0  0  0
    7.5472   -0.2121   19.0093 C   0  0  0  0  0  0  0  0  0  0  0  0
    7.9333   -1.5330   22.0243 C   0  0  1  0  0  0  0  0  0  0  0  0
    9.2524   -1.7159   22.7713 C   0  0  1  0  0  0  0  0  0  0  0  0
    9.7263   -0.2699   23.0492 C   0  0  1  0  0  0  0  0  0  0  0  0
   11.2493   -0.1168   23.0961 C   0  0  0  0  0  0  0  0  0  0  0  0
   12.0593   -0.8648   22.2401 C   0  0  0  0  0  0  0  0  0  0  0  0
   13.4013   -0.5527   22.1321 C   0  0  0  0  0  0  0  0  0  0  0  0
   14.3703   -1.3927   20.9491 Cl  0  0  0  0  0  0  0  0  0  0  0  0
   13.9743    0.4503   22.8880 C   0  0  0  0  0  0  0  0  0  0  0  0
   13.1833    1.1553   23.7770 C   0  0  0  0  0  0  0  0  0  0  0  0
   11.8193    0.8843   23.8981 C   0  0  0  0  0  0  0  0  0  0  0  0
   10.9893    1.6553   24.9041 C   0  0  1  0  0  0  0  0  0  0  0  0
    9.0643    0.3271   24.3202 C   0  0  1  0  0  0  0  0  0  0  0  0
    9.5593    1.6852   24.5491 N   0  0  1  0  0  0  0  0  0  0  0  0
    8.7633    2.4832   25.4821 C   0  0  1  0  0  0  0  0  0  0  0  0
    7.7712    3.4341   24.8261 C   0  0  0  0  0  0  0  0  0  0  0  0
    6.6282    3.5571   25.2621 O   0  0  0  0  0  0  0  0  0  0  0  0
    8.2031    4.1121   23.7711 N   0  0  0  0  0  0  0  0  0  0  0  0
    7.3361    4.9890   23.0061 C   0  0  1  0  0  0  0  0  0  0  0  0
    5.9000    0.7622   22.6056 H   0  0  0  0  0  0  0  0  0  0  0  0
    6.4752    2.3806   22.0795 H   0  0  0  0  0  0  0  0  0  0  0  0
    3.6505    1.2586   22.0190 H   0  0  0  0  0  0  0  0  0  0  0  0
    4.2684    2.7019   22.8918 H   0  0  0  0  0  0  0  0  0  0  0  0
    2.9888    3.3711   20.9036 H   0  0  0  0  0  0  0  0  0  0  0  0
    4.7210    3.8096   20.7206 H   0  0  0  0  0  0  0  0  0  0  0  0
    3.2008    1.5098   19.4543 H   0  0  0  0  0  0  0  0  0  0  0  0
    4.0366    2.8797   18.6473 H   0  0  0  0  0  0  0  0  0  0  0  0
    5.1496    1.1441   17.2726 H   0  0  0  0  0  0  0  0  0  0  0  0
    8.4188   -0.8345   18.8702 H   0  0  0  0  0  0  0  0  0  0  0  0
    7.0835   -1.5351   22.7227 H   0  0  0  0  0  0  0  0  0  0  0  0
    7.7939   -2.3258   21.2746 H   0  0  0  0  0  0  0  0  0  0  0  0
    9.0966   -2.2643   23.7120 H   0  0  0  0  0  0  0  0  0  0  0  0
    9.9828   -2.2544   22.1495 H   0  0  0  0  0  0  0  0  0  0  0  0
   11.6413   -1.6796   21.6677 H   0  0  0  0  0  0  0  0  0  0  0  0
   15.0245    0.6811   22.7868 H   0  0  0  0  0  0  0  0  0  0  0  0
   13.6278    1.9277   24.3871 H   0  0  0  0  0  0  0  0  0  0  0  0
   11.0984    1.1800   25.8901 H   0  0  0  0  0  0  0  0  0  0  0  0
   11.3628    2.6888   24.9519 H   0  0  0  0  0  0  0  0  0  0  0  0
    7.9731    0.3549   24.1842 H   0  0  0  0  0  0  0  0  0  0  0  0
    9.3098   -0.3016   25.1887 H   0  0  0  0  0  0  0  0  0  0  0  0
    9.5041    2.1529   23.6670 H   0  0  0  0  0  0  0  0  0  0  0  0
    8.1999    1.7934   26.1278 H   0  0  0  0  0  0  0  0  0  0  0  0
    9.4533    3.0797   26.0969 H   0  0  0  0  0  0  0  0  0  0  0  0
    9.1589    4.0156   23.4934 H   0  0  0  0  0  0  0  0  0  0  0  0
    7.9068    5.4422   22.1821 H   0  0  0  0  0  0  0  0  0  0  0  0
    6.4976    4.4078   22.5948 H   0  0  0  0  0  0  0  0  0  0  0  0
    6.9461    5.7818   23.6615 H   0  0  0  0  0  0  0  0  0  0  0  0
  1  2  2  0
  2  3  1  0
 16  2  1  6
  3  4  1  0
  3 14  1  0
  4  5  2  0
  4 13  1  0
  5  6  1  0
  5 10  1  0
  6  7  1  0
  6 32  1  1
  6 33  1  0
  7  8  1  0
  7 34  1  1
  7 35  1  0
  8  9  1  0
  8 36  1  1
  8 37  1  0
  9 10  1  0
  9 38  1  6
  9 39  1  0
 10 11  2  0
 11 12  1  0
 11 40  1  0
 12 13  2  0
 13 41  1  0
 14 15  1  0
 14 42  1  1
 14 43  1  0
 15 16  1  0
 15 44  1  1
 15 45  1  0
 16 17  1  0
 16 25  1  0
 17 18  2  0
 17 23  1  0
 18 19  1  0
 18 46  1  0
 19 20  1  0
 19 21  2  0
 21 22  1  0
 21 47  1  0
 22 23  2  0
 22 48  1  0
 23 24  1  0
 24 26  1  0
 24 49  1  1
 24 50  1  0
 25 26  1  0
 25 51  1  6
 25 52  1  0
 26 27  1  0
 26 53  1  6
 27 28  1  0
 27 54  1  1
 27 55  1  0
 28 29  2  0
 28 30  1  0
 30 31  1  0
 30 56  1  0
 31 57  1  6
 31 58  1  0
 31 59  1  0
M  CHG  1  26   1
M  END
$$$$
