LIG(A-306)
     RDKit          3D

 52 56  0  0  1  0  0  0  0  0999 V2000
    8.6844    3.4093   26.3900 O   0  0  0  0  0  0  0  0  0  0  0  0
    7.8155    2.7442   25.8260 C   0  0  0  0  0  0  0  0  0  0  0  0
    6.5825    3.1680   25.5370 N   0  0  0  0  0  0  0  0  0  0  0  0
    5.6906    2.1289   25.0450 C   0  0  1  0  0  0  0  0  0  0  0  0
    6.3659    0.8369   25.5369 C   0  0  1  0  0  0  0  0  0  0  0  0
    7.8448    1.2412   25.5969 C   0  0  1  0  0  0  0  0  0  0  0  0
    8.7529    0.7904   24.5129 N   0  0  1  0  0  0  0  0  0  0  0  0
   10.1648    1.0036   24.8609 C   0  0  1  0  0  0  0  0  0  0  0  0
    8.5321   -0.6106   24.1228 C   0  0  1  0  0  0  0  0  0  0  0  0
    9.2641   -0.9064   22.8158 C   0  0  2  0  0  0  0  0  0  0  0  0
   10.7421   -0.6101   22.9798 C   0  0  0  0  0  0  0  0  0  0  0  0
   11.1459    0.3709   23.8968 C   0  0  0  0  0  0  0  0  0  0  0  0
   12.4939    0.7201   23.9658 C   0  0  0  0  0  0  0  0  0  0  0  0
   13.4300    0.1083   23.1557 C   0  0  0  0  0  0  0  0  0  0  0  0
   11.6972   -1.2599   22.1997 C   0  0  0  0  0  0  0  0  0  0  0  0
   13.0221   -0.8787   22.2887 C   0  0  0  0  0  0  0  0  0  0  0  0
   14.1832   -1.6004   21.2136 Cl  0  0  0  0  0  0  0  0  0  0  0  0
    8.6500   -0.0484   21.7068 C   0  0  0  0  0  0  0  0  0  0  0  0
    9.1408    1.0297   21.3629 O   0  0  0  0  0  0  0  0  0  0  0  0
    7.5380   -0.5736   21.1378 N   0  0  0  0  0  0  0  0  0  0  0  0
    6.7899   -0.0567   20.0569 C   0  0  0  0  0  0  0  0  0  0  0  0
    5.6318    0.7401   20.3319 C   0  0  0  0  0  0  0  0  0  0  0  0
    5.1158    0.9609   21.6339 C   0  0  0  0  0  0  0  0  0  0  0  0
    4.0017    1.7287   21.8280 C   0  0  0  0  0  0  0  0  0  0  0  0
    3.3535    2.3207   20.7541 C   0  0  0  0  0  0  0  0  0  0  0  0
    3.8105    2.1398   19.4810 C   0  0  0  0  0  0  0  0  0  0  0  0
    4.9547    1.3391   19.2320 C   0  0  0  0  0  0  0  0  0  0  0  0
    5.4587    1.0912   17.9329 C   0  0  0  0  0  0  0  0  0  0  0  0
    6.5188    0.3364   17.6759 N   0  0  0  0  0  0  0  0  0  0  0  0
    7.1569   -0.2125   18.7198 C   0  0  0  0  0  0  0  0  0  0  0  0
    6.2961    4.1195   25.6494 H   0  0  0  0  0  0  0  0  0  0  0  0
    4.6830    2.2367   25.4728 H   0  0  0  0  0  0  0  0  0  0  0  0
    5.6269    2.1490   23.9470 H   0  0  0  0  0  0  0  0  0  0  0  0
    5.9922    0.5456   26.5297 H   0  0  0  0  0  0  0  0  0  0  0  0
    6.2076    0.0105   24.8286 H   0  0  0  0  0  0  0  0  0  0  0  0
    8.2354    0.8033   26.5273 H   0  0  0  0  0  0  0  0  0  0  0  0
    8.5565    1.3554   23.7115 H   0  0  0  0  0  0  0  0  0  0  0  0
   10.3543    2.0870   24.8838 H   0  0  0  0  0  0  0  0  0  0  0  0
   10.3413    0.5793   25.8602 H   0  0  0  0  0  0  0  0  0  0  0  0
    8.9136   -1.2739   24.9129 H   0  0  0  0  0  0  0  0  0  0  0  0
    7.4548   -0.7858   23.9855 H   0  0  0  0  0  0  0  0  0  0  0  0
    9.1332   -1.9687   22.5622 H   0  0  0  0  0  0  0  0  0  0  0  0
   12.8108    1.4809   24.6636 H   0  0  0  0  0  0  0  0  0  0  0  0
   14.4685    0.4009   23.2022 H   0  0  0  0  0  0  0  0  0  0  0  0
   11.4037   -2.0554   21.5308 H   0  0  0  0  0  0  0  0  0  0  0  0
    7.2068   -1.4314   21.5309 H   0  0  0  0  0  0  0  0  0  0  0  0
    5.6102    0.5160   22.4848 H   0  0  0  0  0  0  0  0  0  0  0  0
    3.6219    1.8760   22.8283 H   0  0  0  0  0  0  0  0  0  0  0  0
    2.4790    2.9304   20.9269 H   0  0  0  0  0  0  0  0  0  0  0  0
    3.2966    2.6105   18.6559 H   0  0  0  0  0  0  0  0  0  0  0  0
    4.9474    1.5458   17.0973 H   0  0  0  0  0  0  0  0  0  0  0  0
    8.0226   -0.8230   18.5092 H   0  0  0  0  0  0  0  0  0  0  0  0
  1  2  2  0
  2  3  1  0
  2  6  1  0
  3  4  1  0
  3 31  1  0
  4  5  1  0
  4 32  1  1
  4 33  1  0
  5  6  1  0
  5 34  1  1
  5 35  1  0
  6  7  1  0
  6 36  1  1
  7  8  1  0
  7  9  1  0
  7 37  1  6
  8 12  1  0
  8 38  1  1
  8 39  1  0
  9 10  1  0
  9 40  1  1
  9 41  1  0
 10 11  1  0
 10 18  1  0
 10 42  1  6
 11 12  2  0
 11 15  1  0
 12 13  1  0
 13 14  2  0
 13 43  1  0
 14 16  1  0
 14 44  1  0
 15 16  2  0
 15 45  1  0
 16 17  1  0
 18 19  2  0
 18 20  1  0
 20 21  1  0
 20 46  1  0
 21 22  2  0
 21 30  1  0
 22 23  1  0
 22 27  1  0
 23 24  2  0
 23 47  1  0
 24 25  1  0
 24 48  1  0
 25 26  2  0
 25 49  1  0
 26 27  1  0
 26 50  1  0
 27 28  2  0
 28 29  1  0
 28 51  1  0
 29 30  2  0
 30 52  1  0
M  CHG  1   7   1
M  END
$$$$
