LIG(A-306)
     RDKit          3D

 45 47  0  0  1  0  0  0  0  0999 V2000
  -14.3727   -2.4857  -21.9901 Cl  0  0  0  0  0  0  0  0  0  0  0  0
  -12.9807   -1.6203  -22.5541 C   0  0  0  0  0  0  0  0  0  0  0  0
  -13.1152   -0.5499  -23.4225 C   0  0  0  0  0  0  0  0  0  0  0  0
  -14.6757    0.0967  -23.8008 Cl  0  0  0  0  0  0  0  0  0  0  0  0
  -11.9883    0.0441  -23.9661 C   0  0  0  0  0  0  0  0  0  0  0  0
  -10.7338   -0.4172  -23.6135 C   0  0  0  0  0  0  0  0  0  0  0  0
  -11.7227   -2.0600  -22.1820 C   0  0  0  0  0  0  0  0  0  0  0  0
  -10.5836   -1.4551  -22.7031 C   0  0  0  0  0  0  0  0  0  0  0  0
   -9.2135   -1.8931  -22.2487 C   0  0  1  0  0  0  0  0  0  0  0  0
   -8.4657   -2.3790  -23.3669 O   0  0  0  0  0  0  0  0  0  0  0  0
   -8.5077   -3.8024  -23.5111 C   0  0  1  0  0  0  0  0  0  0  0  0
   -7.3922   -4.4373  -22.7350 C   0  0  1  0  0  0  0  0  0  0  0  0
   -7.2481   -5.8406  -22.9272 O   0  0  0  0  0  0  0  0  0  0  0  0
   -6.1046   -6.3481  -22.2516 C   0  0  1  0  0  0  0  0  0  0  0  0
   -8.5209   -0.8044  -21.4217 C   0  0  0  0  0  0  0  0  0  0  0  0
   -8.7284    0.3852  -21.6476 O   0  0  0  0  0  0  0  0  0  0  0  0
   -7.8435   -1.2541  -20.3499 N   0  0  0  0  0  0  0  0  0  0  0  0
   -6.9108   -0.6152  -19.5130 C   0  0  0  0  0  0  0  0  0  0  0  0
   -6.0168    0.3972  -19.9960 C   0  0  0  0  0  0  0  0  0  0  0  0
   -5.6274    0.5304  -21.3551 C   0  0  0  0  0  0  0  0  0  0  0  0
   -4.6655    1.4269  -21.7302 C   0  0  0  0  0  0  0  0  0  0  0  0
   -4.0437    2.2295  -20.7902 C   0  0  0  0  0  0  0  0  0  0  0  0
   -4.3853    2.1467  -19.4724 C   0  0  0  0  0  0  0  0  0  0  0  0
   -5.3769    1.2311  -19.0382 C   0  0  0  0  0  0  0  0  0  0  0  0
   -5.6900    1.0262  -17.6764 C   0  0  0  0  0  0  0  0  0  0  0  0
   -6.5021    0.0866  -17.2310 N   0  0  0  0  0  0  0  0  0  0  0  0
   -7.0719   -0.7149  -18.1352 C   0  0  0  0  0  0  0  0  0  0  0  0
  -12.0891    0.8636  -24.6623 H   0  0  0  0  0  0  0  0  0  0  0  0
   -9.8574    0.0363  -24.0525 H   0  0  0  0  0  0  0  0  0  0  0  0
  -11.6246   -2.8774  -21.4829 H   0  0  0  0  0  0  0  0  0  0  0  0
   -9.3698   -2.7416  -21.5663 H   0  0  0  0  0  0  0  0  0  0  0  0
   -9.4709   -4.1771  -23.1344 H   0  0  0  0  0  0  0  0  0  0  0  0
   -8.4038   -4.0627  -24.5748 H   0  0  0  0  0  0  0  0  0  0  0  0
   -6.4504   -3.9535  -23.0335 H   0  0  0  0  0  0  0  0  0  0  0  0
   -7.5745   -4.2563  -21.6654 H   0  0  0  0  0  0  0  0  0  0  0  0
   -6.0276   -7.4318  -22.4234 H   0  0  0  0  0  0  0  0  0  0  0  0
   -5.2015   -5.8510  -22.6354 H   0  0  0  0  0  0  0  0  0  0  0  0
   -6.1998   -6.1538  -21.1731 H   0  0  0  0  0  0  0  0  0  0  0  0
   -8.0359   -2.2048  -20.1066 H   0  0  0  0  0  0  0  0  0  0  0  0
   -6.0991   -0.0869  -22.1053 H   0  0  0  0  0  0  0  0  0  0  0  0
   -4.3883    1.5093  -22.7708 H   0  0  0  0  0  0  0  0  0  0  0  0
   -3.2813    2.9277  -21.1027 H   0  0  0  0  0  0  0  0  0  0  0  0
   -3.8953    2.7850  -18.7522 H   0  0  0  0  0  0  0  0  0  0  0  0
   -5.2339    1.6830  -16.9506 H   0  0  0  0  0  0  0  0  0  0  0  0
   -7.7096   -1.5047  -17.7662 H   0  0  0  0  0  0  0  0  0  0  0  0
  1  2  1  0
  2  3  2  0
  2  7  1  0
  3  4  1  0
  3  5  1  0
  5  6  2  0
  5 28  1  0
  6  8  1  0
  6 29  1  0
  7  8  2  0
  7 30  1  0
  8  9  1  0
  9 10  1  0
  9 15  1  0
  9 31  1  1
 10 11  1  0
 11 12  1  0
 11 32  1  1
 11 33  1  0
 12 13  1  0
 12 34  1  6
 12 35  1  0
 13 14  1  0
 14 36  1  1
 14 37  1  0
 14 38  1  0
 15 16  2  0
 15 17  1  0
 17 18  1  0
 17 39  1  0
 18 19  2  0
 18 27  1  0
 19 20  1  0
 19 24  1  0
 20 21  2  0
 20 40  1  0
 21 22  1  0
 21 41  1  0
 22 23  2  0
 22 42  1  0
 23 24  1  0
 23 43  1  0
 24 25  2  0
 25 26  1  0
 25 44  1  0
 26 27  2  0
 27 45  1  0
M  END
$$$$
