LIG(A-305)
     RDKit          3D

 35 36  0  0  0  0  0  0  0  0999 V2000
   24.6111  -17.8102   25.4785 C   0  0  0  0  0  0  0  0  0  0  0  0
   24.0969  -18.8502   24.4716 C   0  0  2  0  0  0  0  0  0  0  0  0
   24.8457  -18.8843   23.1955 C   0  0  1  0  0  0  0  0  0  0  0  0
   24.4495  -20.1052   22.3585 C   0  0  1  0  0  0  0  0  0  0  0  0
   22.2256  -20.0638   23.6428 C   0  0  1  0  0  0  0  0  0  0  0  0
   22.6769  -18.6989   24.1357 C   0  0  2  0  0  0  0  0  0  0  0  0
   22.4401  -21.7389   21.7527 C   0  0  0  0  0  0  0  0  0  0  0  0
   22.5517  -23.4279   19.8797 C   0  0  0  0  0  0  0  0  0  0  0  0
   22.4586  -23.2528   18.5127 C   0  0  0  0  0  0  0  0  0  0  0  0
   21.8973  -24.2477   17.7228 C   0  0  0  0  0  0  0  0  0  0  0  0
   21.4332  -25.4187   18.3118 C   0  0  0  0  0  0  0  0  0  0  0  0
   21.5293  -25.5937   19.6868 C   0  0  0  0  0  0  0  0  0  0  0  0
   22.0896  -24.5978   20.4727 C   0  0  0  0  0  0  0  0  0  0  0  0
   23.8184  -16.6821   25.9546 N   0  0  0  0  0  0  0  0  0  0  0  0
   23.0464  -20.6640   22.5387 N   0  0  0  0  0  0  0  0  0  0  0  0
   23.1539  -22.3720   20.6617 N   0  0  0  0  0  0  0  0  0  0  0  0
   25.6972  -17.9524   25.9204 O   0  0  0  0  0  0  0  0  0  0  0  0
   21.3341  -22.0927   22.0058 O   0  0  0  0  0  0  0  0  0  0  0  0
   24.2190  -19.8345   24.9472 H   0  0  0  0  0  0  0  0  0  0  0  0
   24.6256  -17.9701   22.6247 H   0  0  0  0  0  0  0  0  0  0  0  0
   25.9232  -18.9308   23.4119 H   0  0  0  0  0  0  0  0  0  0  0  0
   24.5581  -19.8265   21.3000 H   0  0  0  0  0  0  0  0  0  0  0  0
   25.1572  -20.9119   22.5998 H   0  0  0  0  0  0  0  0  0  0  0  0
   22.2511  -20.7565   24.4970 H   0  0  0  0  0  0  0  0  0  0  0  0
   21.1917  -19.9668   23.2801 H   0  0  0  0  0  0  0  0  0  0  0  0
   22.5473  -17.9436   23.3467 H   0  0  0  0  0  0  0  0  0  0  0  0
   22.1015  -18.4024   25.0251 H   0  0  0  0  0  0  0  0  0  0  0  0
   22.8220  -22.3429   18.0585 H   0  0  0  0  0  0  0  0  0  0  0  0
   21.8217  -24.1123   16.6540 H   0  0  0  0  0  0  0  0  0  0  0  0
   20.9970  -26.1938   17.6991 H   0  0  0  0  0  0  0  0  0  0  0  0
   21.1683  -26.5037   20.1427 H   0  0  0  0  0  0  0  0  0  0  0  0
   22.1666  -24.7304   21.5418 H   0  0  0  0  0  0  0  0  0  0  0  0
   24.1981  -16.0563   26.6359 H   0  0  0  0  0  0  0  0  0  0  0  0
   22.8951  -16.5346   25.5997 H   0  0  0  0  0  0  0  0  0  0  0  0
   24.0830  -22.0718   20.4453 H   0  0  0  0  0  0  0  0  0  0  0  0
  1  2  1  0
  1 14  1  0
  1 17  2  0
  2  3  1  0
  2  6  1  0
  2 19  1  1
  3  4  1  0
  3 20  1  6
  3 21  1  0
  4 15  1  0
  4 22  1  6
  4 23  1  0
  5  6  1  0
  5 15  1  0
  5 24  1  1
  5 25  1  0
  6 26  1  6
  6 27  1  0
  7 15  1  0
  7 16  1  0
  7 18  2  0
  8  9  2  0
  8 13  1  0
  8 16  1  0
  9 10  1  0
  9 28  1  0
 10 11  2  0
 10 29  1  0
 11 12  1  0
 11 30  1  0
 12 13  2  0
 12 31  1  0
 13 32  1  0
 14 33  1  0
 14 34  1  0
 16 35  1  0
M  END
$$$$
