LIG(A-305)
     RDKit          3D

 40 41  0  0  0  0  0  0  0  0999 V2000
    7.5052   -2.5472   23.7734 N   0  0  0  0  0  0  0  0  0  0  0  0
    6.0497   -5.1852   29.1776 C   0  0  1  0  0  0  0  0  0  0  0  0
    8.6816   -1.1303   25.4303 O   0  0  0  0  0  0  0  0  0  0  0  0
    7.0706   -4.8433   28.1204 C   0  0  0  0  0  0  0  0  0  0  0  0
    6.7969   -4.2601   22.2395 C   0  0  1  0  0  0  0  0  0  0  0  0
    6.3691   -3.4001   23.3976 C   0  0  2  0  0  0  0  0  0  0  0  0
    6.7266   -3.5730   19.8765 C   0  0  0  0  0  0  0  0  0  0  0  0
    7.2936   -2.7050   18.7855 C   0  0  1  0  0  0  0  0  0  0  0  0
    8.1995   -5.6233   27.9373 C   0  0  0  0  0  0  0  0  0  0  0  0
    9.1384   -5.3124   26.9671 C   0  0  0  0  0  0  0  0  0  0  0  0
    8.9754   -4.2044   26.1392 C   0  0  0  0  0  0  0  0  0  0  0  0
   10.0333   -3.9304   25.1081 C   0  0  1  0  0  0  0  0  0  0  0  0
    7.8355   -3.4123   26.3304 C   0  0  0  0  0  0  0  0  0  0  0  0
    6.8966   -3.7372   27.3015 C   0  0  0  0  0  0  0  0  0  0  0  0
    7.8722   -1.6342   22.6814 C   0  0  1  0  0  0  0  0  0  0  0  0
    8.2809   -2.4592   21.4873 C   0  0  1  0  0  0  0  0  0  0  0  0
    7.2368   -3.4241   21.1205 N   0  0  0  0  0  0  0  0  0  0  0  0
    6.2436   -1.4881   25.6116 O   0  0  0  0  0  0  0  0  0  0  0  0
    5.8585   -4.3939   19.6096 O   0  0  0  0  0  0  0  0  0  0  0  0
    7.5485   -1.9932   25.3155 S   0  0  2  0  0  0  0  0  0  0  0  0
    6.5289   -5.1752   30.1676 H   0  0  0  0  0  0  0  0  0  0  0  0
    5.2373   -4.4438   29.1560 H   0  0  0  0  0  0  0  0  0  0  0  0
    5.6382   -6.1860   28.9796 H   0  0  0  0  0  0  0  0  0  0  0  0
    7.6271   -4.9085   22.5563 H   0  0  0  0  0  0  0  0  0  0  0  0
    5.9488   -4.8817   21.9165 H   0  0  0  0  0  0  0  0  0  0  0  0
    5.5141   -2.7742   23.1020 H   0  0  0  0  0  0  0  0  0  0  0  0
    6.0817   -4.0355   24.2483 H   0  0  0  0  0  0  0  0  0  0  0  0
    6.8082   -2.9526   17.8298 H   0  0  0  0  0  0  0  0  0  0  0  0
    7.1108   -1.6474   19.0263 H   0  0  0  0  0  0  0  0  0  0  0  0
    8.3763   -2.8805   18.7029 H   0  0  0  0  0  0  0  0  0  0  0  0
    8.3511   -6.4908   28.5625 H   0  0  0  0  0  0  0  0  0  0  0  0
   10.0104   -5.9390   26.8511 H   0  0  0  0  0  0  0  0  0  0  0  0
   10.8188   -4.6976   25.1751 H   0  0  0  0  0  0  0  0  0  0  0  0
    9.5824   -3.9542   24.1050 H   0  0  0  0  0  0  0  0  0  0  0  0
   10.4732   -2.9386   25.2889 H   0  0  0  0  0  0  0  0  0  0  0  0
    6.0186   -3.1198   27.4205 H   0  0  0  0  0  0  0  0  0  0  0  0
    7.0100   -1.0033   22.4193 H   0  0  0  0  0  0  0  0  0  0  0  0
    8.7109   -0.9963   22.9967 H   0  0  0  0  0  0  0  0  0  0  0  0
    8.4642   -1.7887   20.6348 H   0  0  0  0  0  0  0  0  0  0  0  0
    9.2044   -3.0058   21.7291 H   0  0  0  0  0  0  0  0  0  0  0  0
  1  6  1  0
  1 15  1  0
 20  1  1  6
  2  4  1  0
  2 21  1  1
  2 22  1  0
  2 23  1  0
  3 20  2  0
  4  9  2  0
  4 14  1  0
  5  6  1  0
  5 17  1  0
  5 24  1  1
  5 25  1  0
  6 26  1  6
  6 27  1  0
  7  8  1  0
  7 17  1  0
  7 19  2  0
  8 28  1  6
  8 29  1  0
  8 30  1  0
  9 10  1  0
  9 31  1  0
 10 11  2  0
 10 32  1  0
 11 12  1  0
 11 13  1  0
 12 33  1  6
 12 34  1  0
 12 35  1  0
 13 14  2  0
 13 20  1  0
 14 36  1  0
 15 16  1  0
 15 37  1  6
 15 38  1  0
 16 17  1  0
 16 39  1  6
 16 40  1  0
 18 20  2  0
M  END
$$$$
