LIG(A-306)
     RDKit          3D

 57 60  0  0  1  0  0  0  0  0999 V2000
   10.7928    2.9645   24.5373 O   0  0  0  0  0  0  0  0  0  0  0  0
   10.4581    1.8514   24.1783 C   0  0  0  0  0  0  0  0  0  0  0  0
    9.1613    1.4050   24.3054 N   0  0  0  0  0  0  0  0  0  0  0  0
    8.2321    2.1396   25.1435 C   0  0  1  0  0  0  0  0  0  0  0  0
    7.4577    3.2644   24.4757 C   0  0  0  0  0  0  0  0  0  0  0  0
    6.6155    3.8971   25.1078 O   0  0  0  0  0  0  0  0  0  0  0  0
    7.7315    3.5206   23.2007 N   0  0  0  0  0  0  0  0  0  0  0  0
    7.0031    4.5144   22.4338 C   0  0  1  0  0  0  0  0  0  0  0  0
   11.3924    0.9598   23.4701 C   0  0  0  0  0  0  0  0  0  0  0  0
   12.7402    1.3132   23.3810 C   0  0  0  0  0  0  0  0  0  0  0  0
   13.6335    0.4976   22.7099 C   0  0  0  0  0  0  0  0  0  0  0  0
   13.1758   -0.6666   22.1319 C   0  0  0  0  0  0  0  0  0  0  0  0
   14.2920   -1.6791   21.2627 Cl  0  0  0  0  0  0  0  0  0  0  0  0
   11.8449   -1.0310   22.1930 C   0  0  0  0  0  0  0  0  0  0  0  0
   10.9307   -0.2034   22.8421 C   0  0  0  0  0  0  0  0  0  0  0  0
    9.4518   -0.5198   22.8032 C   0  0  1  0  0  0  0  0  0  0  0  0
    8.7797    0.0098   24.0663 C   0  0  2  0  0  0  0  0  0  0  0  0
    8.8125    0.1870   21.6043 C   0  0  0  0  0  0  0  0  0  0  0  0
    9.2071    1.2792   21.2044 O   0  0  0  0  0  0  0  0  0  0  0  0
    7.7436   -0.4493   21.0814 N   0  0  0  0  0  0  0  0  0  0  0  0
    6.8944    0.0155   20.0585 C   0  0  0  0  0  0  0  0  0  0  0  0
    5.7162    0.7341   20.4317 C   0  0  0  0  0  0  0  0  0  0  0  0
    4.9579    1.3489   19.3968 C   0  0  0  0  0  0  0  0  0  0  0  0
    5.3978    1.1751   18.0617 C   0  0  0  0  0  0  0  0  0  0  0  0
    6.4770    0.4845   17.7156 N   0  0  0  0  0  0  0  0  0  0  0  0
    7.1963   -0.0733   18.6995 C   0  0  0  0  0  0  0  0  0  0  0  0
    5.2692    0.8728   21.7707 C   0  0  0  0  0  0  0  0  0  0  0  0
    4.1400    1.6024   22.0719 C   0  0  0  0  0  0  0  0  0  0  0  0
    3.4227    2.2193   21.0470 C   0  0  0  0  0  0  0  0  0  0  0  0
    3.8096    2.1005   19.7449 C   0  0  0  0  0  0  0  0  0  0  0  0
    3.7371    1.6822   23.4449 N   0  0  0  0  0  0  0  0  0  0  0  0
    2.4799    2.4927   24.0921 S   0  0  1  0  0  0  0  0  0  0  0  0
    1.3090    2.1854   23.3302 O   0  0  0  0  0  0  0  0  0  0  0  0
    2.4942    2.1797   25.4881 O   0  0  0  0  0  0  0  0  0  0  0  0
    2.8363    4.1979   23.9062 C   0  0  1  0  0  0  0  0  0  0  0  0
    7.5006    1.4206   25.5409 H   0  0  0  0  0  0  0  0  0  0  0  0
    8.8056    2.5764   25.9744 H   0  0  0  0  0  0  0  0  0  0  0  0
    8.4660    3.0101   22.7534 H   0  0  0  0  0  0  0  0  0  0  0  0
    7.4018    4.5523   21.4093 H   0  0  0  0  0  0  0  0  0  0  0  0
    5.9372    4.2443   22.4026 H   0  0  0  0  0  0  0  0  0  0  0  0
    7.1179    5.5001   22.9084 H   0  0  0  0  0  0  0  0  0  0  0  0
   13.0872    2.2280   23.8384 H   0  0  0  0  0  0  0  0  0  0  0  0
   14.6763    0.7697   22.6398 H   0  0  0  0  0  0  0  0  0  0  0  0
   11.5141   -1.9537   21.7395 H   0  0  0  0  0  0  0  0  0  0  0  0
    9.2985   -1.6062   22.7230 H   0  0  0  0  0  0  0  0  0  0  0  0
    7.6879   -0.0515   23.9481 H   0  0  0  0  0  0  0  0  0  0  0  0
    9.0905   -0.6026   24.9256 H   0  0  0  0  0  0  0  0  0  0  0  0
    7.5313   -1.3494   21.4617 H   0  0  0  0  0  0  0  0  0  0  0  0
    4.8178    1.6342   17.2748 H   0  0  0  0  0  0  0  0  0  0  0  0
    8.0758   -0.6338   18.4189 H   0  0  0  0  0  0  0  0  0  0  0  0
    5.8233    0.3987   22.5673 H   0  0  0  0  0  0  0  0  0  0  0  0
    2.5456    2.8010   21.2889 H   0  0  0  0  0  0  0  0  0  0  0  0
    3.2337    2.5851   18.9704 H   0  0  0  0  0  0  0  0  0  0  0  0
    3.9363    0.8387   23.9438 H   0  0  0  0  0  0  0  0  0  0  0  0
    2.0139    4.7932   24.3295 H   0  0  0  0  0  0  0  0  0  0  0  0
    3.7712    4.4366   24.4344 H   0  0  0  0  0  0  0  0  0  0  0  0
    2.9481    4.4346   22.8378 H   0  0  0  0  0  0  0  0  0  0  0  0
  1  2  2  0
  2  3  1  0
  2  9  1  0
  3  4  1  0
  3 17  1  0
  4  5  1  0
  4 36  1  1
  4 37  1  0
  5  6  2  0
  5  7  1  0
  7  8  1  0
  7 38  1  0
  8 39  1  6
  8 40  1  0
  8 41  1  0
  9 10  2  0
  9 15  1  0
 10 11  1  0
 10 42  1  0
 11 12  2  0
 11 43  1  0
 12 13  1  0
 12 14  1  0
 14 15  2  0
 14 44  1  0
 15 16  1  0
 16 17  1  0
 16 18  1  0
 16 45  1  6
 17 46  1  6
 17 47  1  0
 18 19  2  0
 18 20  1  0
 20 21  1  0
 20 48  1  0
 21 22  2  0
 21 26  1  0
 22 23  1  0
 22 27  1  0
 23 24  2  0
 23 30  1  0
 24 25  1  0
 24 49  1  0
 25 26  2  0
 26 50  1  0
 27 28  2  0
 27 51  1  0
 28 29  1  0
 28 31  1  0
 29 30  2  0
 29 52  1  0
 30 53  1  0
 32 31  1  6
 31 54  1  0
 32 33  2  0
 32 34  2  0
 32 35  1  0
 35 55  1  1
 35 56  1  0
 35 57  1  0
M  END
$$$$
