LIG(A-305)
     RDKit          3D

 35 36  0  0  1  0  0  0  0  0999 V2000
   22.4886   14.9634    8.5205 C   0  0  1  0  0  0  0  0  0  0  0  0
   21.3745   14.8785    7.4796 C   0  0  2  0  0  0  0  0  0  0  0  0
   20.6613   13.5367    7.7227 C   0  0  2  0  0  0  0  0  0  0  0  0
   21.1411   12.4386    6.9197 C   0  0  1  0  0  0  0  0  0  0  0  0
   22.4520   12.6024    6.3475 C   0  0  1  0  0  0  0  0  0  0  0  0
   22.6781   13.9343    5.6475 C   0  0  1  0  0  0  0  0  0  0  0  0
   22.5505   16.1033    5.9565 C   0  0  1  0  0  0  0  0  0  0  0  0
   21.7447   17.3655    5.6476 C   0  0  0  0  0  0  0  0  0  0  0  0
   21.3766   17.6195    4.3316 C   0  0  0  0  0  0  0  0  0  0  0  0
   20.6647   18.7696    4.0187 C   0  0  0  0  0  0  0  0  0  0  0  0
   20.3349   19.6727    5.0187 C   0  0  0  0  0  0  0  0  0  0  0  0
   20.7101   19.4306    6.3326 C   0  0  0  0  0  0  0  0  0  0  0  0
   21.4259   18.2795    6.6476 C   0  0  0  0  0  0  0  0  0  0  0  0
   21.9034   15.0614    6.1346 N   0  0  2  0  0  0  0  0  0  0  0  0
   19.2943   13.7259    7.4789 O   0  0  0  0  0  0  0  0  0  0  0  0
   23.0372   15.9085    8.3949 H   0  0  0  0  0  0  0  0  0  0  0  0
   22.0517   14.9245    9.5293 H   0  0  0  0  0  0  0  0  0  0  0  0
   23.1797   14.1180    8.3874 H   0  0  0  0  0  0  0  0  0  0  0  0
   20.6546   15.6834    7.6893 H   0  0  0  0  0  0  0  0  0  0  0  0
   20.8033   13.2798    8.7828 H   0  0  0  0  0  0  0  0  0  0  0  0
   21.1604   11.5404    7.5544 H   0  0  0  0  0  0  0  0  0  0  0  0
   20.4295   12.2890    6.0942 H   0  0  0  0  0  0  0  0  0  0  0  0
   23.1926   12.5099    7.1557 H   0  0  0  0  0  0  0  0  0  0  0  0
   22.6083   11.7984    5.6132 H   0  0  0  0  0  0  0  0  0  0  0  0
   23.7428   14.1904    5.7521 H   0  0  0  0  0  0  0  0  0  0  0  0
   22.4367   13.7977    4.5830 H   0  0  0  0  0  0  0  0  0  0  0  0
   23.2360   15.9305    5.1137 H   0  0  0  0  0  0  0  0  0  0  0  0
   23.1331   16.2946    6.8697 H   0  0  0  0  0  0  0  0  0  0  0  0
   21.6445   16.9217    3.5520 H   0  0  0  0  0  0  0  0  0  0  0  0
   20.3680   18.9609    2.9980 H   0  0  0  0  0  0  0  0  0  0  0  0
   19.7837   20.5685    4.7735 H   0  0  0  0  0  0  0  0  0  0  0  0
   20.4471   20.1339    7.1090 H   0  0  0  0  0  0  0  0  0  0  0  0
   21.7336   18.0958    7.6663 H   0  0  0  0  0  0  0  0  0  0  0  0
   21.0982   15.0984    5.5427 H   0  0  0  0  0  0  0  0  0  0  0  0
   18.8823   14.0938    8.2517 H   0  0  0  0  0  0  0  0  0  0  0  0
  1  2  1  0
  1 16  1  1
  1 17  1  0
  1 18  1  0
  2  3  1  0
  2 14  1  0
  2 19  1  1
  3  4  1  0
  3 15  1  0
  3 20  1  1
  4  5  1  0
  4 21  1  1
  4 22  1  0
  5  6  1  0
  5 23  1  1
  5 24  1  0
  6 14  1  0
  6 25  1  6
  6 26  1  0
  7  8  1  0
  7 14  1  0
  7 27  1  6
  7 28  1  0
  8  9  2  0
  8 13  1  0
  9 10  1  0
  9 29  1  0
 10 11  2  0
 10 30  1  0
 11 12  1  0
 11 31  1  0
 12 13  2  0
 12 32  1  0
 13 33  1  0
 14 34  1  6
 15 35  1  0
M  CHG  1  14   1
M  END
$$$$
