LIG(A-305)
     RDKit          3D

 39 42  0  0  1  0  0  0  0  0999 V2000
   10.2654    0.4995   24.8820 O   0  0  0  0  0  0  0  0  0  0  0  0
    3.9923    1.5011   21.6671 C   0  0  0  0  0  0  0  0  0  0  0  0
    3.3583    2.1480   20.6251 C   0  0  0  0  0  0  0  0  0  0  0  0
    3.8092    2.0140   19.3441 C   0  0  0  0  0  0  0  0  0  0  0  0
    4.9513    1.2260   19.0631 C   0  0  0  0  0  0  0  0  0  0  0  0
    9.1553    0.8014   21.1141 O   0  0  0  0  0  0  0  0  0  0  0  0
   11.5045   -1.3255   21.9541 C   0  0  0  0  0  0  0  0  0  0  0  0
    5.4933    1.0810   17.7641 C   0  0  0  0  0  0  0  0  0  0  0  0
    7.2024   -0.2278   18.5081 C   0  0  0  0  0  0  0  0  0  0  0  0
    6.7874   -0.1728   19.8331 C   0  0  0  0  0  0  0  0  0  0  0  0
   10.5865   -0.7935   22.8531 C   0  0  0  0  0  0  0  0  0  0  0  0
    8.5994   -0.2267   21.4951 C   0  0  0  0  0  0  0  0  0  0  0  0
   13.9785   -1.7474   20.9790 Cl  0  0  0  0  0  0  0  0  0  0  0  0
    7.5044   -0.7298   20.9051 N   0  0  0  0  0  0  0  0  0  0  0  0
    5.0884    0.7231   21.4372 C   0  0  0  0  0  0  0  0  0  0  0  0
   12.8345   -0.9774   22.0410 C   0  0  0  0  0  0  0  0  0  0  0  0
   13.2864   -0.0823   22.9840 C   0  0  0  0  0  0  0  0  0  0  0  0
   12.3934    0.4306   23.9070 C   0  0  0  0  0  0  0  0  0  0  0  0
   11.0605    0.0526   23.8550 C   0  0  0  0  0  0  0  0  0  0  0  0
    8.8654    0.6304   24.5561 C   0  0  1  0  0  0  0  0  0  0  0  0
    8.3075   -0.6386   23.9651 C   0  0  1  0  0  0  0  0  0  0  0  0
    9.0965   -1.0296   22.6981 C   0  0  2  0  0  0  0  0  0  0  0  0
    6.5853    0.3811   17.4901 N   0  0  0  0  0  0  0  0  0  0  0  0
    5.6123    0.5711   20.1301 C   0  0  0  0  0  0  0  0  0  0  0  0
    3.6167    1.6122   22.6737 H   0  0  0  0  0  0  0  0  0  0  0  0
    2.4961    2.7667   20.8260 H   0  0  0  0  0  0  0  0  0  0  0  0
    3.2909    2.5128   18.5386 H   0  0  0  0  0  0  0  0  0  0  0  0
   11.1747   -2.0114   21.1878 H   0  0  0  0  0  0  0  0  0  0  0  0
    4.9862    1.5706   16.9457 H   0  0  0  0  0  0  0  0  0  0  0  0
    8.0877   -0.8044   18.2842 H   0  0  0  0  0  0  0  0  0  0  0  0
    7.1612   -1.5960   21.2683 H   0  0  0  0  0  0  0  0  0  0  0  0
    5.5637    0.2156   22.2635 H   0  0  0  0  0  0  0  0  0  0  0  0
   14.3244    0.2153   23.0028 H   0  0  0  0  0  0  0  0  0  0  0  0
   12.7325    1.1221   24.6643 H   0  0  0  0  0  0  0  0  0  0  0  0
    8.3074    0.8717   25.4728 H   0  0  0  0  0  0  0  0  0  0  0  0
    8.7442    1.4458   23.8277 H   0  0  0  0  0  0  0  0  0  0  0  0
    8.3848   -1.4486   24.7054 H   0  0  0  0  0  0  0  0  0  0  0  0
    7.2511   -0.4826   23.7013 H   0  0  0  0  0  0  0  0  0  0  0  0
    8.9272   -2.0982   22.4999 H   0  0  0  0  0  0  0  0  0  0  0  0
  1 19  1  0
  1 20  1  0
  2  3  2  0
  2 15  1  0
  2 25  1  0
  3  4  1  0
  3 26  1  0
  4  5  2  0
  4 27  1  0
  5  8  1  0
  5 24  1  0
  6 12  2  0
  7 11  2  0
  7 16  1  0
  7 28  1  0
  8 23  2  0
  8 29  1  0
  9 10  2  0
  9 23  1  0
  9 30  1  0
 10 14  1  0
 10 24  1  0
 11 19  1  0
 11 22  1  0
 12 14  1  0
 12 22  1  0
 13 16  1  0
 14 31  1  0
 15 24  2  0
 15 32  1  0
 16 17  2  0
 17 18  1  0
 17 33  1  0
 18 19  2  0
 18 34  1  0
 20 21  1  0
 20 35  1  1
 20 36  1  0
 21 22  1  0
 21 37  1  1
 21 38  1  0
 22 39  1  6
M  END
$$$$
