LIG(A-305)
     RDKit          3D

 26 27  0  0  0  0  0  0  0  0999 V2000
    6.9075   -0.0824   17.7752 O   0  0  0  0  0  0  0  0  0  0  0  0
    6.1826    0.5036   18.5582 C   0  0  0  0  0  0  0  0  0  0  0  0
    5.2316    1.4257   18.3312 N   0  0  0  0  0  0  0  0  0  0  0  0
    4.6777    1.9168   19.4933 N   0  0  0  0  0  0  0  0  0  0  0  0
    5.2937    1.2798   20.4352 C   0  0  0  0  0  0  0  0  0  0  0  0
    6.2086    0.4097   19.9292 N   0  0  0  0  0  0  0  0  0  0  0  0
    7.0085   -0.4604   20.6502 N   0  0  0  0  0  0  0  0  0  0  0  0
    8.1716   -0.0245   21.1761 C   0  0  0  0  0  0  0  0  0  0  0  0
    8.7507    0.9934   20.8011 O   0  0  0  0  0  0  0  0  0  0  0  0
    8.7076   -0.8606   22.3211 C   0  0  1  0  0  0  0  0  0  0  0  0
   10.1366   -0.5037   22.6681 C   0  0  0  0  0  0  0  0  0  0  0  0
   11.1885   -1.2318   22.1200 C   0  0  0  0  0  0  0  0  0  0  0  0
   12.4896   -0.8150   22.3290 C   0  0  0  0  0  0  0  0  0  0  0  0
   13.7904   -1.7191   21.5989 Cl  0  0  0  0  0  0  0  0  0  0  0  0
   10.4267    0.6002   23.4621 C   0  0  0  0  0  0  0  0  0  0  0  0
   11.7398    1.0021   23.6660 C   0  0  0  0  0  0  0  0  0  0  0  0
   12.7837    0.3000   23.0850 C   0  0  0  0  0  0  0  0  0  0  0  0
    4.9574    1.7241   17.4231 H   0  0  0  0  0  0  0  0  0  0  0  0
    5.1057    1.4207   21.4894 H   0  0  0  0  0  0  0  0  0  0  0  0
    6.7245   -1.4103   20.7808 H   0  0  0  0  0  0  0  0  0  0  0  0
    8.0760   -0.6954   23.2065 H   0  0  0  0  0  0  0  0  0  0  0  0
    8.6668   -1.9218   22.0345 H   0  0  0  0  0  0  0  0  0  0  0  0
   10.9893   -2.1174   21.5348 H   0  0  0  0  0  0  0  0  0  0  0  0
    9.6216    1.1512   23.9253 H   0  0  0  0  0  0  0  0  0  0  0  0
   11.9486    1.8656   24.2801 H   0  0  0  0  0  0  0  0  0  0  0  0
   13.8063    0.6195   23.2214 H   0  0  0  0  0  0  0  0  0  0  0  0
  1  2  2  0
  2  3  1  0
  2  6  1  0
  3  4  1  0
  3 18  1  0
  4  5  2  0
  5  6  1  0
  5 19  1  0
  6  7  1  0
  7  8  1  0
  7 20  1  0
  8  9  2  0
  8 10  1  0
 10 11  1  0
 10 21  1  1
 10 22  1  0
 11 12  2  0
 11 15  1  0
 12 13  1  0
 12 23  1  0
 13 14  1  0
 13 17  2  0
 15 16  2  0
 15 24  1  0
 16 17  1  0
 16 25  1  0
 17 26  1  0
M  END
$$$$
