LIG(A-306)
     RDKit          3D

 37 39  0  0  1  0  0  0  0  0999 V2000
   13.8683   -1.7974   21.7753 Cl  0  0  0  0  0  0  0  0  0  0  0  0
   12.5216   -0.9935   22.5101 C   0  0  0  0  0  0  0  0  0  0  0  0
   12.7168    0.0354   23.4187 C   0  0  0  0  0  0  0  0  0  0  0  0
   14.3020    0.6603   23.7310 Cl  0  0  0  0  0  0  0  0  0  0  0  0
   11.6264    0.6489   24.0144 C   0  0  0  0  0  0  0  0  0  0  0  0
   10.3507    0.2524   23.6663 C   0  0  0  0  0  0  0  0  0  0  0  0
   11.2399   -1.3830   22.1641 C   0  0  0  0  0  0  0  0  0  0  0  0
   10.1374   -0.7457   22.7326 C   0  0  0  0  0  0  0  0  0  0  0  0
    8.7267   -1.1309   22.3157 C   0  0  1  0  0  0  0  0  0  0  0  0
    7.8717   -1.4576   23.4607 N   0  0  1  0  0  0  0  0  0  0  0  0
    8.0705   -0.1039   21.3603 C   0  0  0  0  0  0  0  0  0  0  0  0
    8.4482    1.0756   21.3127 O   0  0  0  0  0  0  0  0  0  0  0  0
    7.1875   -0.6547   20.5026 N   0  0  0  0  0  0  0  0  0  0  0  0
    6.1824   -0.1085   19.6926 C   0  0  0  0  0  0  0  0  0  0  0  0
    5.2391    0.8764   20.1378 C   0  0  0  0  0  0  0  0  0  0  0  0
    4.8055    1.0087   21.4846 C   0  0  0  0  0  0  0  0  0  0  0  0
    3.7674    1.8367   21.8129 C   0  0  0  0  0  0  0  0  0  0  0  0
    3.1018    2.5635   20.8313 C   0  0  0  0  0  0  0  0  0  0  0  0
    3.4883    2.4854   19.5263 C   0  0  0  0  0  0  0  0  0  0  0  0
    4.5664    1.6491   19.1400 C   0  0  0  0  0  0  0  0  0  0  0  0
    4.9301    1.4427   17.7917 C   0  0  0  0  0  0  0  0  0  0  0  0
    5.7993    0.5349   17.3861 N   0  0  0  0  0  0  0  0  0  0  0  0
    6.3610   -0.2345   18.3211 C   0  0  0  0  0  0  0  0  0  0  0  0
   11.7733    1.4308   24.7448 H   0  0  0  0  0  0  0  0  0  0  0  0
    9.5022    0.7310   24.1324 H   0  0  0  0  0  0  0  0  0  0  0  0
   11.0930   -2.1820   21.4524 H   0  0  0  0  0  0  0  0  0  0  0  0
    8.8289   -2.0559   21.7292 H   0  0  0  0  0  0  0  0  0  0  0  0
    7.1868   -2.1318   23.1843 H   0  0  0  0  0  0  0  0  0  0  0  0
    8.4321   -1.8349   24.1981 H   0  0  0  0  0  0  0  0  0  0  0  0
    7.4130   -0.6289   23.7813 H   0  0  0  0  0  0  0  0  0  0  0  0
    7.2651   -1.6492   20.4303 H   0  0  0  0  0  0  0  0  0  0  0  0
    5.3034    0.4468   22.2610 H   0  0  0  0  0  0  0  0  0  0  0  0
    3.4614    1.9270   22.8447 H   0  0  0  0  0  0  0  0  0  0  0  0
    2.2705    3.1960   21.1057 H   0  0  0  0  0  0  0  0  0  0  0  0
    2.9682    3.0663   18.7790 H   0  0  0  0  0  0  0  0  0  0  0  0
    4.4672    2.0681   17.0428 H   0  0  0  0  0  0  0  0  0  0  0  0
    7.0125   -1.0257   17.9807 H   0  0  0  0  0  0  0  0  0  0  0  0
  1  2  1  0
  2  3  2  0
  2  7  1  0
  3  4  1  0
  3  5  1  0
  5  6  2  0
  5 24  1  0
  6  8  1  0
  6 25  1  0
  7  8  2  0
  7 26  1  0
  8  9  1  0
  9 10  1  0
  9 11  1  0
  9 27  1  6
 10 28  1  6
 10 29  1  0
 10 30  1  0
 11 12  2  0
 11 13  1  0
 13 14  1  0
 13 31  1  0
 14 15  2  0
 14 23  1  0
 15 16  1  0
 15 20  1  0
 16 17  2  0
 16 32  1  0
 17 18  1  0
 17 33  1  0
 18 19  2  0
 18 34  1  0
 19 20  1  0
 19 35  1  0
 20 21  2  0
 21 22  1  0
 21 36  1  0
 22 23  2  0
 23 37  1  0
M  CHG  1  10   1
M  END
$$$$
