LIG(A-306)
     RDKit          3D

 42 45  0  0  1  0  0  0  0  0999 V2000
    9.1779    1.2636   21.1087 O   0  0  0  0  0  0  0  0  0  0  0  0
    8.6806    0.2404   21.5796 C   0  0  0  0  0  0  0  0  0  0  0  0
    9.3037   -0.4680   22.7813 C   0  0  1  0  0  0  0  0  0  0  0  0
   10.8054   -0.3193   22.9159 C   0  0  0  0  0  0  0  0  0  0  0  0
   11.6802   -1.1051   22.1669 C   0  0  0  0  0  0  0  0  0  0  0  0
   13.0375   -0.8534   22.2069 C   0  0  0  0  0  0  0  0  0  0  0  0
   14.0803   -1.6713   21.0751 Cl  0  0  0  0  0  0  0  0  0  0  0  0
   13.5683    0.1214   23.0253 C   0  0  0  0  0  0  0  0  0  0  0  0
   12.7195    0.8954   23.7953 C   0  0  0  0  0  0  0  0  0  0  0  0
   11.3511    0.6746   23.7362 C   0  0  0  0  0  0  0  0  0  0  0  0
   10.5803    1.4542   24.5652 O   0  0  0  0  0  0  0  0  0  0  0  0
    9.1552    1.4562   24.3645 C   0  0  1  0  0  0  0  0  0  0  0  0
    8.5986    0.0837   24.0438 C   0  0  2  0  0  0  0  0  0  0  0  0
    8.7443   -0.8610   25.2371 C   0  0  1  0  0  0  0  0  0  0  0  0
    7.5599   -0.3427   21.0918 N   0  0  0  0  0  0  0  0  0  0  0  0
    6.7746    0.0820   19.9971 C   0  0  0  0  0  0  0  0  0  0  0  0
    5.6007    0.8558   20.2562 C   0  0  0  0  0  0  0  0  0  0  0  0
    5.1163    1.1473   21.5584 C   0  0  0  0  0  0  0  0  0  0  0  0
    4.0124    1.9317   21.7395 C   0  0  0  0  0  0  0  0  0  0  0  0
    3.3337    2.4597   20.6501 C   0  0  0  0  0  0  0  0  0  0  0  0
    3.7561    2.2023   19.3767 C   0  0  0  0  0  0  0  0  0  0  0  0
    4.8970    1.3956   19.1448 C   0  0  0  0  0  0  0  0  0  0  0  0
    5.3964    1.1162   17.8505 C   0  0  0  0  0  0  0  0  0  0  0  0
    6.4792    0.3903   17.6101 N   0  0  0  0  0  0  0  0  0  0  0  0
    7.1347   -0.1110   18.6643 C   0  0  0  0  0  0  0  0  0  0  0  0
    9.0691   -1.5400   22.7053 H   0  0  0  0  0  0  0  0  0  0  0  0
   11.2969   -1.9094   21.5564 H   0  0  0  0  0  0  0  0  0  0  0  0
   14.6360    0.2788   23.0645 H   0  0  0  0  0  0  0  0  0  0  0  0
   13.1189    1.6661   24.4380 H   0  0  0  0  0  0  0  0  0  0  0  0
    8.6730    1.8241   25.2822 H   0  0  0  0  0  0  0  0  0  0  0  0
    8.9201    2.1332   23.5300 H   0  0  0  0  0  0  0  0  0  0  0  0
    7.5274    0.1880   23.8165 H   0  0  0  0  0  0  0  0  0  0  0  0
    8.3332   -1.8475   24.9767 H   0  0  0  0  0  0  0  0  0  0  0  0
    9.8087   -0.9640   25.4952 H   0  0  0  0  0  0  0  0  0  0  0  0
    8.1962   -0.4511   26.0982 H   0  0  0  0  0  0  0  0  0  0  0  0
    7.2526   -1.1705   21.5612 H   0  0  0  0  0  0  0  0  0  0  0  0
    5.6281    0.7428   22.4191 H   0  0  0  0  0  0  0  0  0  0  0  0
    3.6645    2.1429   22.7399 H   0  0  0  0  0  0  0  0  0  0  0  0
    2.4640    3.0796   20.8105 H   0  0  0  0  0  0  0  0  0  0  0  0
    3.2151    2.6175   18.5392 H   0  0  0  0  0  0  0  0  0  0  0  0
    4.8609    1.5204   17.0042 H   0  0  0  0  0  0  0  0  0  0  0  0
    8.0104   -0.7114   18.4669 H   0  0  0  0  0  0  0  0  0  0  0  0
  1  2  2  0
  2  3  1  0
  2 15  1  0
  3  4  1  0
  3 13  1  0
  3 26  1  6
  4  5  2  0
  4 10  1  0
  5  6  1  0
  5 27  1  0
  6  7  1  0
  6  8  2  0
  8  9  1  0
  8 28  1  0
  9 10  2  0
  9 29  1  0
 10 11  1  0
 11 12  1  0
 12 13  1  0
 12 30  1  1
 12 31  1  0
 13 14  1  0
 13 32  1  6
 14 33  1  6
 14 34  1  0
 14 35  1  0
 15 16  1  0
 15 36  1  0
 16 17  2  0
 16 25  1  0
 17 18  1  0
 17 22  1  0
 18 19  2  0
 18 37  1  0
 19 20  1  0
 19 38  1  0
 20 21  2  0
 20 39  1  0
 21 22  1  0
 21 40  1  0
 22 23  2  0
 23 24  1  0
 23 41  1  0
 24 25  2  0
 25 42  1  0
M  END
$$$$
