LIG(A-305)
     RDKit          3D

 34 36  0  0  1  0  0  0  0  0999 V2000
    7.1968   -4.5672   21.2738 N   0  0  0  0  0  0  0  0  0  0  0  0
    7.4525   -2.9943   19.3857 C   0  0  1  0  0  0  0  0  0  0  0  0
    5.6646   -4.5303   19.6399 O   0  0  0  0  0  0  0  0  0  0  0  0
    6.6996   -4.0832   20.1178 C   0  0  0  0  0  0  0  0  0  0  0  0
   13.1980   -0.8057   24.9209 C   0  0  0  0  0  0  0  0  0  0  0  0
   13.7261   -1.8737   25.6330 C   0  0  0  0  0  0  0  0  0  0  0  0
   13.0562   -3.0727   25.7041 C   0  0  0  0  0  0  0  0  0  0  0  0
   11.8411   -3.1798   25.0302 C   0  0  0  0  0  0  0  0  0  0  0  0
    6.3679   -5.4351   22.1189 C   0  0  1  0  0  0  0  0  0  0  0  0
    7.2130   -6.3541   22.9779 C   0  0  1  0  0  0  0  0  0  0  0  0
    8.0781   -5.5420   23.9447 C   0  0  1  0  0  0  0  0  0  0  0  0
    8.4520   -4.1880   23.3316 C   0  0  2  0  0  0  0  0  0  0  0  0
    8.5268   -4.3221   21.8216 C   0  0  1  0  0  0  0  0  0  0  0  0
    9.7230   -3.6019   23.9045 C   0  0  0  0  0  0  0  0  0  0  0  0
   11.3050   -2.1098   24.3052 C   0  0  0  0  0  0  0  0  0  0  0  0
   11.9950   -0.9038   24.2551 C   0  0  0  0  0  0  0  0  0  0  0  0
   10.0869   -2.3789   23.6854 N   0  0  0  0  0  0  0  0  0  0  0  0
   10.7781   -4.5468   24.9284 S   0  0  0  0  0  0  0  0  0  0  0  0
    6.9205   -2.7408   18.4568 H   0  0  0  0  0  0  0  0  0  0  0  0
    7.5196   -2.1016   20.0249 H   0  0  0  0  0  0  0  0  0  0  0  0
    8.4653   -3.3484   19.1430 H   0  0  0  0  0  0  0  0  0  0  0  0
   13.7435    0.1258   24.8877 H   0  0  0  0  0  0  0  0  0  0  0  0
   14.6746   -1.7618   26.1373 H   0  0  0  0  0  0  0  0  0  0  0  0
   13.4585   -3.9041   26.2639 H   0  0  0  0  0  0  0  0  0  0  0  0
    5.7463   -4.8067   22.7738 H   0  0  0  0  0  0  0  0  0  0  0  0
    5.7193   -6.0465   21.4741 H   0  0  0  0  0  0  0  0  0  0  0  0
    6.5528   -7.0187   23.5544 H   0  0  0  0  0  0  0  0  0  0  0  0
    7.8649   -6.9575   22.3291 H   0  0  0  0  0  0  0  0  0  0  0  0
    7.5179   -5.3740   24.8764 H   0  0  0  0  0  0  0  0  0  0  0  0
    8.9973   -6.1042   24.1660 H   0  0  0  0  0  0  0  0  0  0  0  0
    7.6336   -3.4894   23.5601 H   0  0  0  0  0  0  0  0  0  0  0  0
    9.1874   -5.1629   21.5633 H   0  0  0  0  0  0  0  0  0  0  0  0
    8.9312   -3.3931   21.3934 H   0  0  0  0  0  0  0  0  0  0  0  0
   11.5973   -0.0627   23.7068 H   0  0  0  0  0  0  0  0  0  0  0  0
  1  4  1  0
  1  9  1  0
  1 13  1  0
  2  4  1  0
  2 19  1  6
  2 20  1  0
  2 21  1  0
  3  4  2  0
  5  6  2  0
  5 16  1  0
  5 22  1  0
  6  7  1  0
  6 23  1  0
  7  8  2  0
  7 24  1  0
  8 15  1  0
  8 18  1  0
  9 10  1  0
  9 25  1  1
  9 26  1  0
 10 11  1  0
 10 27  1  1
 10 28  1  0
 11 12  1  0
 11 29  1  1
 11 30  1  0
 12 13  1  0
 12 14  1  0
 12 31  1  6
 13 32  1  1
 13 33  1  0
 14 17  2  0
 14 18  1  0
 15 16  2  0
 15 17  1  0
 16 34  1  0
M  END
$$$$
