LIG(A-305)
     RDKit          3D

 35 36  0  0  0  0  0  0  0  0999 V2000
    8.7454    0.4597   20.9404 O   0  0  0  0  0  0  0  0  0  0  0  0
    8.1123   -0.5753   21.1426 C   0  0  0  0  0  0  0  0  0  0  0  0
    8.5704   -1.6093   22.1465 C   0  0  1  0  0  0  0  0  0  0  0  0
    9.8445   -1.1163   22.7813 C   0  0  0  0  0  0  0  0  0  0  0  0
   11.0714   -1.4154   22.2022 C   0  0  0  0  0  0  0  0  0  0  0  0
   12.2255   -0.9195   22.7620 C   0  0  0  0  0  0  0  0  0  0  0  0
   13.7564   -1.3626   22.0648 Cl  0  0  0  0  0  0  0  0  0  0  0  0
   12.2057   -0.1214   23.8890 C   0  0  0  0  0  0  0  0  0  0  0  0
    9.8007   -0.3293   23.9263 C   0  0  0  0  0  0  0  0  0  0  0  0
   10.9808    0.1477   24.4791 C   0  0  0  0  0  0  0  0  0  0  0  0
   11.0841    0.7947   25.6841 O   0  0  0  0  0  0  0  0  0  0  0  0
    9.9042    0.9488   26.4793 C   0  0  1  0  0  0  0  0  0  0  0  0
    6.9482   -0.8752   20.5357 N   0  0  0  0  0  0  0  0  0  0  0  0
    6.3371   -0.0692   19.5598 C   0  0  0  0  0  0  0  0  0  0  0  0
    5.2422    0.7409   19.9059 C   0  0  0  0  0  0  0  0  0  0  0  0
    4.7214    0.8230   21.3190 C   0  0  1  0  0  0  0  0  0  0  0  0
    4.7001    1.5379   18.9030 C   0  0  0  0  0  0  0  0  0  0  0  0
    5.2629    1.5248   17.6439 C   0  0  0  0  0  0  0  0  0  0  0  0
    6.3208    0.7708   17.3128 N   0  0  0  0  0  0  0  0  0  0  0  0
    6.8379   -0.0183   18.2597 C   0  0  0  0  0  0  0  0  0  0  0  0
    7.7987   -1.7465   22.9182 H   0  0  0  0  0  0  0  0  0  0  0  0
    8.7542   -2.5669   21.6374 H   0  0  0  0  0  0  0  0  0  0  0  0
   11.1185   -2.0335   21.3178 H   0  0  0  0  0  0  0  0  0  0  0  0
   13.1197    0.2819   24.2992 H   0  0  0  0  0  0  0  0  0  0  0  0
    8.8521   -0.0900   24.3838 H   0  0  0  0  0  0  0  0  0  0  0  0
   10.1541    1.4843   27.4071 H   0  0  0  0  0  0  0  0  0  0  0  0
    9.1545    1.5230   25.9152 H   0  0  0  0  0  0  0  0  0  0  0  0
    9.4968   -0.0426   26.7265 H   0  0  0  0  0  0  0  0  0  0  0  0
    6.4896   -1.7250   20.7958 H   0  0  0  0  0  0  0  0  0  0  0  0
    5.5174    1.1914   21.9829 H   0  0  0  0  0  0  0  0  0  0  0  0
    3.8656    1.5131   21.3547 H   0  0  0  0  0  0  0  0  0  0  0  0
    4.4011   -0.1758   21.6502 H   0  0  0  0  0  0  0  0  0  0  0  0
    3.8439    2.1631   19.1090 H   0  0  0  0  0  0  0  0  0  0  0  0
    4.8279    2.1563   16.8835 H   0  0  0  0  0  0  0  0  0  0  0  0
    7.6809   -0.6440   18.0065 H   0  0  0  0  0  0  0  0  0  0  0  0
  1  2  2  0
  2  3  1  0
  2 13  1  0
  3  4  1  0
  3 21  1  1
  3 22  1  0
  4  5  2  0
  4  9  1  0
  5  6  1  0
  5 23  1  0
  6  7  1  0
  6  8  2  0
  8 10  1  0
  8 24  1  0
  9 10  2  0
  9 25  1  0
 10 11  1  0
 11 12  1  0
 12 26  1  1
 12 27  1  0
 12 28  1  0
 13 14  1  0
 13 29  1  0
 14 15  2  0
 14 20  1  0
 15 16  1  0
 15 17  1  0
 16 30  1  1
 16 31  1  0
 16 32  1  0
 17 18  2  0
 17 33  1  0
 18 19  1  0
 18 34  1  0
 19 20  2  0
 20 35  1  0
M  END
$$$$
