LIG(A-305)
     RDKit          3D

 27 28  0  0  0  0  0  0  0  0999 V2000
    5.3858    1.3141   17.9443 C   0  0  0  0  0  0  0  0  0  0  0  0
    9.1399   -1.0418   22.3882 N   0  0  0  0  0  0  0  0  0  0  0  0
    6.4677    0.5960   17.6123 N   0  0  0  0  0  0  0  0  0  0  0  0
   13.0110    0.0231   23.4850 C   0  0  0  0  0  0  0  0  0  0  0  0
   11.5079   -1.3449   22.1811 C   0  0  0  0  0  0  0  0  0  0  0  0
   12.7759   -0.8850   22.4730 C   0  0  0  0  0  0  0  0  0  0  0  0
    4.8649    1.3582   19.2233 C   0  0  0  0  0  0  0  0  0  0  0  0
   11.9431    0.4412   24.2670 C   0  0  0  0  0  0  0  0  0  0  0  0
    7.4099   -0.7328   20.9163 N   0  0  0  0  0  0  0  0  0  0  0  0
    6.6348   -0.1038   19.9093 C   0  0  0  0  0  0  0  0  0  0  0  0
    9.1499    0.7411   20.9651 O   0  0  0  0  0  0  0  0  0  0  0  0
    8.6079   -0.2719   21.3912 C   0  0  0  0  0  0  0  0  0  0  0  0
    5.4969    0.6312   20.2193 C   0  0  0  0  0  0  0  0  0  0  0  0
   10.4350   -0.8608   22.9232 C   0  0  0  0  0  0  0  0  0  0  0  0
    7.0688   -0.0989   18.5843 C   0  0  0  0  0  0  0  0  0  0  0  0
   10.6581   -0.0058   23.9961 C   0  0  0  0  0  0  0  0  0  0  0  0
   14.1179   -1.4811   21.5400 Cl  0  0  0  0  0  0  0  0  0  0  0  0
    4.8956    1.8882   17.1719 H   0  0  0  0  0  0  0  0  0  0  0  0
    8.5771   -1.7791   22.7621 H   0  0  0  0  0  0  0  0  0  0  0  0
   14.0066    0.4011   23.6651 H   0  0  0  0  0  0  0  0  0  0  0  0
   11.3515   -2.0662   21.3926 H   0  0  0  0  0  0  0  0  0  0  0  0
    3.9854    1.9458   19.4416 H   0  0  0  0  0  0  0  0  0  0  0  0
   12.1136    1.1182   25.0909 H   0  0  0  0  0  0  0  0  0  0  0  0
    7.0531   -1.5798   21.3106 H   0  0  0  0  0  0  0  0  0  0  0  0
    5.1087    0.6358   21.2272 H   0  0  0  0  0  0  0  0  0  0  0  0
    7.9371   -0.6882   18.3290 H   0  0  0  0  0  0  0  0  0  0  0  0
    9.8329    0.3099   24.6173 H   0  0  0  0  0  0  0  0  0  0  0  0
  1  3  2  0
  1  7  1  0
  1 18  1  0
  2 12  1  0
  2 14  1  0
  2 19  1  0
  3 15  1  0
  4  6  1  0
  4  8  2  0
  4 20  1  0
  5  6  2  0
  5 14  1  0
  5 21  1  0
  6 17  1  0
  7 13  2  0
  7 22  1  0
  8 16  1  0
  8 23  1  0
  9 10  1  0
  9 12  1  0
  9 24  1  0
 10 13  1  0
 10 15  2  0
 11 12  2  0
 13 25  1  0
 14 16  2  0
 15 26  1  0
 16 27  1  0
M  END
$$$$
