LIG(A-306)
     RDKit          3D

 41 43  0  0  0  0  0  0  0  0999 V2000
   13.9870   -1.2652   21.5467 Cl  0  0  0  0  0  0  0  0  0  0  0  0
   12.6538   -0.8041   22.5681 C   0  0  0  0  0  0  0  0  0  0  0  0
   12.8691    0.0932   23.5942 C   0  0  0  0  0  0  0  0  0  0  0  0
   11.7909    0.4895   24.3667 C   0  0  0  0  0  0  0  0  0  0  0  0
   10.5217    0.0022   24.0959 C   0  0  0  0  0  0  0  0  0  0  0  0
   11.3974   -1.3078   22.2966 C   0  0  0  0  0  0  0  0  0  0  0  0
   10.3055   -0.8767   23.0424 C   0  0  0  0  0  0  0  0  0  0  0  0
    8.9024   -1.2376   22.6124 C   0  0  1  0  0  0  0  0  0  0  0  0
    8.2929   -0.1993   21.6896 C   0  0  0  0  0  0  0  0  0  0  0  0
    8.8899    0.8329   21.3848 O   0  0  0  0  0  0  0  0  0  0  0  0
    7.0797   -0.5311   21.2056 N   0  0  0  0  0  0  0  0  0  0  0  0
    6.4260   -0.0140   20.0755 C   0  0  0  0  0  0  0  0  0  0  0  0
    6.8251   -0.2774   18.7670 C   0  0  0  0  0  0  0  0  0  0  0  0
    6.2526    0.2374   17.6712 N   0  0  0  0  0  0  0  0  0  0  0  0
    5.2316    1.0664   17.8457 C   0  0  0  0  0  0  0  0  0  0  0  0
    4.7076    1.4300   19.1098 C   0  0  0  0  0  0  0  0  0  0  0  0
    5.3146    0.8620   20.2638 C   0  0  0  0  0  0  0  0  0  0  0  0
    4.7827    1.2023   21.5353 C   0  0  0  0  0  0  0  0  0  0  0  0
    3.7348    2.0699   21.6529 C   0  0  0  0  0  0  0  0  0  0  0  0
    3.6262    2.3249   19.2717 C   0  0  0  0  0  0  0  0  0  0  0  0
    3.1511    2.6515   20.5187 C   0  0  0  0  0  0  0  0  0  0  0  0
    2.0229    3.6270   20.6688 C   0  0  0  0  0  0  0  0  0  0  0  0
    1.6154    3.9480   21.7821 O   0  0  0  0  0  0  0  0  0  0  0  0
    1.4516    4.0763   19.5514 N   0  0  0  0  0  0  0  0  0  0  0  0
    0.1062    4.6253   19.5427 C   0  0  1  0  0  0  0  0  0  0  0  0
   13.8588    0.4786   23.7906 H   0  0  0  0  0  0  0  0  0  0  0  0
   11.9390    1.1807   25.1832 H   0  0  0  0  0  0  0  0  0  0  0  0
    9.6900    0.3101   24.7122 H   0  0  0  0  0  0  0  0  0  0  0  0
   11.2631   -2.0336   21.5083 H   0  0  0  0  0  0  0  0  0  0  0  0
    8.9319   -2.2033   22.0865 H   0  0  0  0  0  0  0  0  0  0  0  0
    8.2708   -1.3274   23.5086 H   0  0  0  0  0  0  0  0  0  0  0  0
    6.5827   -1.2335   21.7152 H   0  0  0  0  0  0  0  0  0  0  0  0
    7.6598   -0.9479   18.6255 H   0  0  0  0  0  0  0  0  0  0  0  0
    4.7702    1.4915   16.9666 H   0  0  0  0  0  0  0  0  0  0  0  0
    5.2141    0.7676   22.4247 H   0  0  0  0  0  0  0  0  0  0  0  0
    3.3505    2.3115   22.6329 H   0  0  0  0  0  0  0  0  0  0  0  0
    3.1643    2.7608   18.3982 H   0  0  0  0  0  0  0  0  0  0  0  0
    1.9641    4.0343   18.6937 H   0  0  0  0  0  0  0  0  0  0  0  0
   -0.1588    4.9316   18.5199 H   0  0  0  0  0  0  0  0  0  0  0  0
   -0.6038    3.8611   19.8920 H   0  0  0  0  0  0  0  0  0  0  0  0
    0.0624    5.4987   20.2099 H   0  0  0  0  0  0  0  0  0  0  0  0
  1  2  1  0
  2  3  2  0
  2  6  1  0
  3  4  1  0
  3 26  1  0
  4  5  2  0
  4 27  1  0
  5  7  1  0
  5 28  1  0
  6  7  2  0
  6 29  1  0
  7  8  1  0
  8  9  1  0
  8 30  1  6
  8 31  1  0
  9 10  2  0
  9 11  1  0
 11 12  1  0
 11 32  1  0
 12 13  2  0
 12 17  1  0
 13 14  1  0
 13 33  1  0
 14 15  2  0
 15 16  1  0
 15 34  1  0
 16 17  2  0
 16 20  1  0
 17 18  1  0
 18 19  2  0
 18 35  1  0
 19 21  1  0
 19 36  1  0
 20 21  2  0
 20 37  1  0
 21 22  1  0
 22 23  2  0
 22 24  1  0
 24 25  1  0
 24 38  1  0
 25 39  1  6
 25 40  1  0
 25 41  1  0
M  END
$$$$
