LIG(A-306)
     RDKit          3D

 49 52  0  0  1  0  0  0  0  0999 V2000
   10.5335    3.0202   24.5710 O   0  0  0  0  0  0  0  0  0  0  0  0
   10.2087    1.8881   24.2599 C   0  0  0  0  0  0  0  0  0  0  0  0
    8.9128    1.4459   24.3858 N   0  0  0  0  0  0  0  0  0  0  0  0
    7.9496    2.2337   25.1358 C   0  0  1  0  0  0  0  0  0  0  0  0
    7.5214    3.4967   24.4059 C   0  0  0  0  0  0  0  0  0  0  0  0
    7.3002    4.5316   25.0300 O   0  0  0  0  0  0  0  0  0  0  0  0
    7.3965    3.4248   23.0849 N   0  0  0  0  0  0  0  0  0  0  0  0
    6.9324    4.5428   22.2880 C   0  0  1  0  0  0  0  0  0  0  0  0
   11.1559    0.9684   23.6069 C   0  0  0  0  0  0  0  0  0  0  0  0
   12.5018    1.3276   23.5110 C   0  0  0  0  0  0  0  0  0  0  0  0
   13.3980    0.5198   22.8389 C   0  0  0  0  0  0  0  0  0  0  0  0
   12.9502   -0.6562   22.2788 C   0  0  0  0  0  0  0  0  0  0  0  0
   14.0724   -1.6590   21.3997 Cl  0  0  0  0  0  0  0  0  0  0  0  0
   11.6232   -1.0384   22.3557 C   0  0  0  0  0  0  0  0  0  0  0  0
   10.7021   -0.2067   22.9947 C   0  0  0  0  0  0  0  0  0  0  0  0
    9.2201   -0.5089   22.9186 C   0  0  1  0  0  0  0  0  0  0  0  0
    8.5210    0.0519   24.1566 C   0  0  2  0  0  0  0  0  0  0  0  0
    8.6191    0.1991   21.7026 C   0  0  0  0  0  0  0  0  0  0  0  0
    9.0139    1.3022   21.3248 O   0  0  0  0  0  0  0  0  0  0  0  0
    7.5842   -0.4500   21.1235 N   0  0  0  0  0  0  0  0  0  0  0  0
    6.7872   -0.0060   20.0505 C   0  0  0  0  0  0  0  0  0  0  0  0
    5.6281    0.7778   20.3486 C   0  0  0  0  0  0  0  0  0  0  0  0
    5.1370    0.9816   21.6616 C   0  0  0  0  0  0  0  0  0  0  0  0
    4.0238    1.7334   21.8876 C   0  0  0  0  0  0  0  0  0  0  0  0
    3.3808    2.3124   20.8226 C   0  0  0  0  0  0  0  0  0  0  0  0
    2.2977    3.0922   21.0806 F   0  0  0  0  0  0  0  0  0  0  0  0
    3.7769    2.1626   19.5326 C   0  0  0  0  0  0  0  0  0  0  0  0
    4.9210    1.3708   19.2636 C   0  0  0  0  0  0  0  0  0  0  0  0
    5.3971    1.1170   17.9536 C   0  0  0  0  0  0  0  0  0  0  0  0
    6.4553    0.3642   17.6766 N   0  0  0  0  0  0  0  0  0  0  0  0
    7.1193   -0.1778   18.7065 C   0  0  0  0  0  0  0  0  0  0  0  0
    7.0585    1.6157   25.3202 H   0  0  0  0  0  0  0  0  0  0  0  0
    8.4025    2.5200   26.0965 H   0  0  0  0  0  0  0  0  0  0  0  0
    7.6311    2.5688   22.6242 H   0  0  0  0  0  0  0  0  0  0  0  0
    6.9097    4.2531   21.2271 H   0  0  0  0  0  0  0  0  0  0  0  0
    5.9206    4.8286   22.6117 H   0  0  0  0  0  0  0  0  0  0  0  0
    7.6144    5.3956   22.4206 H   0  0  0  0  0  0  0  0  0  0  0  0
   12.8449    2.2449   23.9662 H   0  0  0  0  0  0  0  0  0  0  0  0
   14.4358    0.8063   22.7537 H   0  0  0  0  0  0  0  0  0  0  0  0
   11.3016   -1.9748   21.9240 H   0  0  0  0  0  0  0  0  0  0  0  0
    9.0533   -1.5938   22.8468 H   0  0  0  0  0  0  0  0  0  0  0  0
    7.4319    0.0022   24.0100 H   0  0  0  0  0  0  0  0  0  0  0  0
    8.8007   -0.5507   25.0334 H   0  0  0  0  0  0  0  0  0  0  0  0
    7.3587   -1.3484   21.5002 H   0  0  0  0  0  0  0  0  0  0  0  0
    5.6537    0.5334   22.4973 H   0  0  0  0  0  0  0  0  0  0  0  0
    3.6522    1.8720   22.8921 H   0  0  0  0  0  0  0  0  0  0  0  0
    3.2321    2.6363   18.7293 H   0  0  0  0  0  0  0  0  0  0  0  0
    4.8652    1.5646   17.1271 H   0  0  0  0  0  0  0  0  0  0  0  0
    7.9764   -0.7942   18.4790 H   0  0  0  0  0  0  0  0  0  0  0  0
  1  2  2  0
  2  3  1  0
  2  9  1  0
  3  4  1  0
  3 17  1  0
  4  5  1  0
  4 32  1  1
  4 33  1  0
  5  6  2  0
  5  7  1  0
  7  8  1  0
  7 34  1  0
  8 35  1  6
  8 36  1  0
  8 37  1  0
  9 10  2  0
  9 15  1  0
 10 11  1  0
 10 38  1  0
 11 12  2  0
 11 39  1  0
 12 13  1  0
 12 14  1  0
 14 15  2  0
 14 40  1  0
 15 16  1  0
 16 17  1  0
 16 18  1  0
 16 41  1  6
 17 42  1  6
 17 43  1  0
 18 19  2  0
 18 20  1  0
 20 21  1  0
 20 44  1  0
 21 22  2  0
 21 31  1  0
 22 23  1  0
 22 28  1  0
 23 24  2  0
 23 45  1  0
 24 25  1  0
 24 46  1  0
 25 26  1  0
 25 27  2  0
 27 28  1  0
 27 47  1  0
 28 29  2  0
 29 30  1  0
 29 48  1  0
 30 31  2  0
 31 49  1  0
M  END
$$$$
