LIG(A-305)
     RDKit          3D

 63 67  0  0  0  0  0  0  0  0999 V2000
    9.4011    1.0732   21.2003 O   0  0  0  0  0  0  0  0  0  0  0  0
    9.0980    0.0353   21.7743 C   0  0  0  0  0  0  0  0  0  0  0  0
    8.1988   -0.9996   21.0985 C   0  0  1  0  0  0  0  0  0  0  0  0
    7.3798   -0.4016   20.0666 N   0  0  0  0  0  0  0  0  0  0  0  0
    7.8086   -0.4017   18.7785 N   0  0  0  0  0  0  0  0  0  0  0  0
    6.9556    0.2654   18.0506 N   0  0  0  0  0  0  0  0  0  0  0  0
    6.2149    0.2926   20.1727 C   0  0  0  0  0  0  0  0  0  0  0  0
    5.9508    0.7186   18.8747 C   0  0  0  0  0  0  0  0  0  0  0  0
    4.8359    1.5098   18.6168 C   0  0  0  0  0  0  0  0  0  0  0  0
    4.0041    1.8589   19.6679 C   0  0  0  0  0  0  0  0  0  0  0  0
    5.3861    0.6228   21.2338 C   0  0  0  0  0  0  0  0  0  0  0  0
    4.2752    1.4120   20.9589 C   0  0  0  0  0  0  0  0  0  0  0  0
    3.3403    1.8022   21.8820 O   0  0  0  0  0  0  0  0  0  0  0  0
    3.5114    1.3952   23.2410 C   0  0  1  0  0  0  0  0  0  0  0  0
    9.5662   -0.2758   23.0193 N   0  0  0  0  0  0  0  0  0  0  0  0
   10.6683    0.5211   23.5641 C   0  0  1  0  0  0  0  0  0  0  0  0
   11.9332   -0.2781   23.7580 C   0  0  0  0  0  0  0  0  0  0  0  0
   12.3970   -0.9112   22.6660 N   0  0  0  0  0  0  0  0  0  0  0  0
   13.3519   -1.8424   22.8459 C   0  0  0  0  0  0  0  0  0  0  0  0
   13.8860   -2.1634   24.0809 C   0  0  0  0  0  0  0  0  0  0  0  0
   13.4332   -1.4723   25.1809 C   0  0  0  0  0  0  0  0  0  0  0  0
   12.4484   -0.5091   25.0300 C   0  0  0  0  0  0  0  0  0  0  0  0
    9.0981   -1.3696   23.8194 C   0  0  0  0  0  0  0  0  0  0  0  0
    9.7159   -2.6187   23.7504 C   0  0  0  0  0  0  0  0  0  0  0  0
    9.2518   -3.6666   24.5275 C   0  0  0  0  0  0  0  0  0  0  0  0
    8.1699   -3.5034   25.3836 C   0  0  0  0  0  0  0  0  0  0  0  0
    7.5751   -2.2503   25.4646 C   0  0  0  0  0  0  0  0  0  0  0  0
    8.0252   -1.1924   24.6945 C   0  0  0  0  0  0  0  0  0  0  0  0
    7.6108   -4.6763   26.1628 C   0  0  2  0  0  0  0  0  0  0  0  0
    6.0838   -4.7661   26.0890 C   0  0  1  0  0  0  0  0  0  0  0  0
    5.5797   -5.9869   26.8391 C   0  0  1  0  0  0  0  0  0  0  0  0
    6.0359   -5.9599   28.2470 N   0  0  1  0  0  0  0  0  0  0  0  0
    7.5139   -5.9122   28.3398 C   0  0  1  0  0  0  0  0  0  0  0  0
    8.0550   -4.6833   27.6287 C   0  0  1  0  0  0  0  0  0  0  0  0
    8.8293   -1.7795   20.6465 H   0  0  0  0  0  0  0  0  0  0  0  0
    7.5431   -1.4523   21.8569 H   0  0  0  0  0  0  0  0  0  0  0  0
    4.6223    1.8463   17.6130 H   0  0  0  0  0  0  0  0  0  0  0  0
    3.1404    2.4813   19.4854 H   0  0  0  0  0  0  0  0  0  0  0  0
    5.5955    0.2798   22.2363 H   0  0  0  0  0  0  0  0  0  0  0  0
    2.6827    1.7874   23.8489 H   0  0  0  0  0  0  0  0  0  0  0  0
    3.5189    0.2966   23.2964 H   0  0  0  0  0  0  0  0  0  0  0  0
    4.4649    1.7881   23.6240 H   0  0  0  0  0  0  0  0  0  0  0  0
   10.8792    1.3484   22.8706 H   0  0  0  0  0  0  0  0  0  0  0  0
   10.3584    0.9288   24.5376 H   0  0  0  0  0  0  0  0  0  0  0  0
   13.7217   -2.3681   21.9780 H   0  0  0  0  0  0  0  0  0  0  0  0
   14.6364   -2.9339   24.1786 H   0  0  0  0  0  0  0  0  0  0  0  0
   13.8437   -1.6795   26.1581 H   0  0  0  0  0  0  0  0  0  0  0  0
   12.0885    0.0501   25.8810 H   0  0  0  0  0  0  0  0  0  0  0  0
   10.5572   -2.7685   23.0900 H   0  0  0  0  0  0  0  0  0  0  0  0
    9.7397   -4.6282   24.4670 H   0  0  0  0  0  0  0  0  0  0  0  0
    6.7467   -2.0993   26.1408 H   0  0  0  0  0  0  0  0  0  0  0  0
    7.5455   -0.2279   24.7708 H   0  0  0  0  0  0  0  0  0  0  0  0
    8.0093   -5.5922   25.7019 H   0  0  0  0  0  0  0  0  0  0  0  0
    5.6470   -3.8614   26.5371 H   0  0  0  0  0  0  0  0  0  0  0  0
    5.7771   -4.8380   25.0350 H   0  0  0  0  0  0  0  0  0  0  0  0
    4.4800   -5.9967   26.8157 H   0  0  0  0  0  0  0  0  0  0  0  0
    5.9649   -6.8948   26.3519 H   0  0  0  0  0  0  0  0  0  0  0  0
    5.6561   -5.1511   28.6959 H   0  0  0  0  0  0  0  0  0  0  0  0
    5.7079   -6.7832   28.7104 H   0  0  0  0  0  0  0  0  0  0  0  0
    7.8087   -5.8760   29.3990 H   0  0  0  0  0  0  0  0  0  0  0  0
    7.9348   -6.8148   27.8727 H   0  0  0  0  0  0  0  0  0  0  0  0
    9.1540   -4.6925   27.6745 H   0  0  0  0  0  0  0  0  0  0  0  0
    7.6748   -3.7793   28.1270 H   0  0  0  0  0  0  0  0  0  0  0  0
  1  2  2  0
  2  3  1  0
  2 15  1  0
  3  4  1  0
  3 35  1  6
  3 36  1  0
  4  5  1  0
  4  7  1  0
  5  6  2  0
  6  8  1  0
  7  8  2  0
  7 11  1  0
  8  9  1  0
  9 10  2  0
  9 37  1  0
 10 12  1  0
 10 38  1  0
 11 12  2  0
 11 39  1  0
 12 13  1  0
 13 14  1  0
 14 40  1  1
 14 41  1  0
 14 42  1  0
 15 16  1  0
 15 23  1  0
 16 17  1  0
 16 43  1  6
 16 44  1  0
 17 18  2  0
 17 22  1  0
 18 19  1  0
 19 20  2  0
 19 45  1  0
 20 21  1  0
 20 46  1  0
 21 22  2  0
 21 47  1  0
 22 48  1  0
 23 24  2  0
 23 28  1  0
 24 25  1  0
 24 49  1  0
 25 26  2  0
 25 50  1  0
 26 27  1  0
 26 29  1  0
 27 28  2  0
 27 51  1  0
 28 52  1  0
 29 30  1  0
 29 34  1  0
 29 53  1  6
 30 31  1  0
 30 54  1  1
 30 55  1  0
 31 32  1  0
 31 56  1  1
 31 57  1  0
 32 33  1  0
 32 58  1  1
 32 59  1  0
 33 34  1  0
 33 60  1  1
 33 61  1  0
 34 62  1  6
 34 63  1  0
M  CHG  1  32   1
M  END
$$$$
