LIG(A-305)
     RDKit          3D

 35 37  0  0  0  0  0  0  0  0999 V2000
    9.2229    0.8644   20.9832 O   0  0  0  0  0  0  0  0  0  0  0  0
    8.6128   -0.0805   21.4714 C   0  0  0  0  0  0  0  0  0  0  0  0
    9.0639   -0.7414   22.7504 C   0  0  1  0  0  0  0  0  0  0  0  0
   10.4118   -1.4446   22.6443 C   0  0  1  0  0  0  0  0  0  0  0  0
   11.6769   -0.5907   22.3891 C   0  0  1  0  0  0  0  0  0  0  0  0
   12.3889   -1.2777   23.5680 C   0  0  2  0  0  0  0  0  0  0  0  0
   13.4241   -0.7298   24.4919 C   0  0  1  0  0  0  0  0  0  0  0  0
   13.7439   -1.9068   23.6089 C   0  0  1  0  0  0  0  0  0  0  0  0
   11.0349   -1.8746   23.9922 C   0  0  2  0  0  0  0  0  0  0  0  0
    7.4697   -0.5734   20.9646 N   0  0  0  0  0  0  0  0  0  0  0  0
    6.7326   -0.0074   19.9016 C   0  0  0  0  0  0  0  0  0  0  0  0
    5.5758    0.7407   20.1797 C   0  0  0  0  0  0  0  0  0  0  0  0
    5.0769    0.9459   21.5877 C   0  0  1  0  0  0  0  0  0  0  0  0
    7.1525   -0.1316   18.5766 C   0  0  0  0  0  0  0  0  0  0  0  0
    6.5074    0.4284   17.5476 N   0  0  0  0  0  0  0  0  0  0  0  0
    5.4035    1.1336   17.8237 C   0  0  0  0  0  0  0  0  0  0  0  0
    4.9137    1.3147   19.1017 C   0  0  0  0  0  0  0  0  0  0  0  0
    9.1370    0.0301   23.5310 H   0  0  0  0  0  0  0  0  0  0  0  0
    8.3077   -1.4857   23.0402 H   0  0  0  0  0  0  0  0  0  0  0  0
   10.3642   -2.2930   21.9457 H   0  0  0  0  0  0  0  0  0  0  0  0
   12.1501   -0.7722   21.4128 H   0  0  0  0  0  0  0  0  0  0  0  0
   11.5232    0.4897   22.5268 H   0  0  0  0  0  0  0  0  0  0  0  0
   13.8798    0.2506   24.2888 H   0  0  0  0  0  0  0  0  0  0  0  0
   13.3213   -0.8684   25.5783 H   0  0  0  0  0  0  0  0  0  0  0  0
   13.8742   -2.9065   24.0491 H   0  0  0  0  0  0  0  0  0  0  0  0
   14.4327   -1.7876   22.7596 H   0  0  0  0  0  0  0  0  0  0  0  0
   11.0550   -2.9631   24.1491 H   0  0  0  0  0  0  0  0  0  0  0  0
   10.5854   -1.3859   24.8693 H   0  0  0  0  0  0  0  0  0  0  0  0
    7.1110   -1.4117   21.3750 H   0  0  0  0  0  0  0  0  0  0  0  0
    5.8491    1.4589   22.1797 H   0  0  0  0  0  0  0  0  0  0  0  0
    4.1634    1.5584   21.5673 H   0  0  0  0  0  0  0  0  0  0  0  0
    4.8539   -0.0301   22.0434 H   0  0  0  0  0  0  0  0  0  0  0  0
    8.0423   -0.7084   18.3719 H   0  0  0  0  0  0  0  0  0  0  0  0
    4.8671    1.5852   17.0023 H   0  0  0  0  0  0  0  0  0  0  0  0
    4.0203    1.8997   19.2626 H   0  0  0  0  0  0  0  0  0  0  0  0
  1  2  2  0
  2  3  1  0
  2 10  1  0
  3  4  1  0
  3 18  1  1
  3 19  1  0
  4  5  1  0
  4  9  1  0
  4 20  1  6
  6  5  1  6
  5 21  1  6
  5 22  1  0
  6  7  1  0
  6  8  1  0
  6  9  1  0
  7  8  1  0
  7 23  1  1
  7 24  1  0
  8 25  1  1
  8 26  1  0
  9 27  1  1
  9 28  1  0
 10 11  1  0
 10 29  1  0
 11 12  2  0
 11 14  1  0
 12 13  1  0
 12 17  1  0
 13 30  1  1
 13 31  1  0
 13 32  1  0
 14 15  2  0
 14 33  1  0
 15 16  1  0
 16 17  2  0
 16 34  1  0
 17 35  1  0
M  END
$$$$
