LIG(A-306)
     RDKit          3D

 43 46  0  0  1  0  0  0  0  0999 V2000
   -9.7687    1.0303  -21.1551 O   0  0  0  0  0  0  0  0  0  0  0  0
   -9.3309   -0.0576  -21.5124 C   0  0  0  0  0  0  0  0  0  0  0  0
   -9.8774   -0.7921  -22.7362 C   0  0  2  0  0  0  0  0  0  0  0  0
   -9.1775   -0.1286  -23.9579 C   0  0  1  0  0  0  0  0  0  0  0  0
  -10.1637    0.3573  -24.9909 C   0  0  1  0  0  0  0  0  0  0  0  0
  -11.2913    1.0381  -24.4290 O   0  0  0  0  0  0  0  0  0  0  0  0
  -11.3900   -0.6655  -22.7146 C   0  0  0  0  0  0  0  0  0  0  0  0
  -12.0080    0.2559  -23.5596 C   0  0  0  0  0  0  0  0  0  0  0  0
  -13.3846    0.4283  -23.5681 C   0  0  0  0  0  0  0  0  0  0  0  0
  -14.1692   -0.3247  -22.7136 C   0  0  0  0  0  0  0  0  0  0  0  0
  -12.1978   -1.4404  -21.8812 C   0  0  0  0  0  0  0  0  0  0  0  0
  -13.5663   -1.2520  -21.8876 C   0  0  0  0  0  0  0  0  0  0  0  0
  -14.5582   -2.2212  -20.8365 Cl  0  0  0  0  0  0  0  0  0  0  0  0
   -8.3385   -0.6912  -20.8629 N   0  0  0  0  0  0  0  0  0  0  0  0
   -7.2782   -0.1865  -20.0787 C   0  0  0  0  0  0  0  0  0  0  0  0
   -6.3721    0.8464  -20.3984 C   0  0  0  0  0  0  0  0  0  0  0  0
   -6.3117    1.3971  -21.8016 C   0  0  1  0  0  0  0  0  0  0  0  0
   -5.0783    2.1450  -22.0728 N   0  0  1  0  0  0  0  0  0  0  0  0
   -4.7565    3.1065  -20.9890 C   0  0  1  0  0  0  0  0  0  0  0  0
   -4.4894    2.3894  -19.6838 C   0  0  1  0  0  0  0  0  0  0  0  0
   -5.5893    1.4020  -19.3736 C   0  0  0  0  0  0  0  0  0  0  0  0
   -5.8275    0.9882  -18.0807 C   0  0  0  0  0  0  0  0  0  0  0  0
   -6.7223    0.0572  -17.7436 N   0  0  0  0  0  0  0  0  0  0  0  0
   -7.3952   -0.5378  -18.7347 C   0  0  0  0  0  0  0  0  0  0  0  0
   -9.5925   -1.8535  -22.6875 H   0  0  0  0  0  0  0  0  0  0  0  0
   -8.5857    0.7283  -23.6037 H   0  0  0  0  0  0  0  0  0  0  0  0
   -8.5098   -0.8667  -24.4264 H   0  0  0  0  0  0  0  0  0  0  0  0
   -9.6436    1.0479  -25.6709 H   0  0  0  0  0  0  0  0  0  0  0  0
  -10.5290   -0.5110  -25.5589 H   0  0  0  0  0  0  0  0  0  0  0  0
  -13.8397    1.1444  -24.2364 H   0  0  0  0  0  0  0  0  0  0  0  0
  -15.2405   -0.1889  -22.6929 H   0  0  0  0  0  0  0  0  0  0  0  0
  -11.7552   -2.1835  -21.2344 H   0  0  0  0  0  0  0  0  0  0  0  0
   -8.3539   -1.6873  -20.9499 H   0  0  0  0  0  0  0  0  0  0  0  0
   -6.3757    0.5581  -22.5102 H   0  0  0  0  0  0  0  0  0  0  0  0
   -7.1693    2.0696  -21.9513 H   0  0  0  0  0  0  0  0  0  0  0  0
   -4.3221    1.4971  -22.1637 H   0  0  0  0  0  0  0  0  0  0  0  0
   -5.1894    2.6499  -22.9288 H   0  0  0  0  0  0  0  0  0  0  0  0
   -3.8622    3.6808  -21.2725 H   0  0  0  0  0  0  0  0  0  0  0  0
   -5.6055    3.7928  -20.8542 H   0  0  0  0  0  0  0  0  0  0  0  0
   -3.5331    1.8508  -19.7583 H   0  0  0  0  0  0  0  0  0  0  0  0
   -4.4310    3.1295  -18.8721 H   0  0  0  0  0  0  0  0  0  0  0  0
   -5.2531    1.4468  -17.2894 H   0  0  0  0  0  0  0  0  0  0  0  0
   -8.0709   -1.3401  -18.4778 H   0  0  0  0  0  0  0  0  0  0  0  0
  1  2  2  0
  2  3  1  0
  2 14  1  0
  3  4  1  0
  3  7  1  0
  3 25  1  1
  4  5  1  0
  4 26  1  1
  4 27  1  0
  5  6  1  0
  5 28  1  6
  5 29  1  0
  6  8  1  0
  7  8  2  0
  7 11  1  0
  8  9  1  0
  9 10  2  0
  9 30  1  0
 10 12  1  0
 10 31  1  0
 11 12  2  0
 11 32  1  0
 12 13  1  0
 14 15  1  0
 14 33  1  0
 15 16  2  0
 15 24  1  0
 16 17  1  0
 16 21  1  0
 17 18  1  0
 17 34  1  6
 17 35  1  0
 18 19  1  0
 18 36  1  6
 18 37  1  0
 19 20  1  0
 19 38  1  6
 19 39  1  0
 20 21  1  0
 20 40  1  6
 20 41  1  0
 21 22  2  0
 22 23  1  0
 22 42  1  0
 23 24  2  0
 24 43  1  0
M  CHG  1  18   1
M  END
$$$$
