LIG(A-307)
     RDKit          3D

 50 53  0  0  0  0  0  0  0  0999 V2000
    9.0139    1.2653   21.3399 O   0  0  0  0  0  0  0  0  0  0  0  0
    8.8813    0.1251   21.7751 C   0  0  0  0  0  0  0  0  0  0  0  0
    7.8336   -0.8161   21.1783 C   0  0  1  0  0  0  0  0  0  0  0  0
    7.1289   -0.1966   20.0782 N   0  0  0  0  0  0  0  0  0  0  0  0
    6.0286    0.6056   20.1007 C   0  0  0  0  0  0  0  0  0  0  0  0
    5.2312    1.1120   21.1166 C   0  0  0  0  0  0  0  0  0  0  0  0
    4.1523    1.9080   20.7524 C   0  0  0  0  0  0  0  0  0  0  0  0
    3.8898    2.1896   19.4149 C   0  0  0  0  0  0  0  0  0  0  0  0
    4.6972    1.6808   18.4072 C   0  0  0  0  0  0  0  0  0  0  0  0
    5.7813    0.8826   18.7605 C   0  0  0  0  0  0  0  0  0  0  0  0
    6.7389    0.2533   17.9971 N   0  0  0  0  0  0  0  0  0  0  0  0
    7.5398   -0.3909   18.7999 N   0  0  0  0  0  0  0  0  0  0  0  0
    9.6519   -0.3633   22.7823 N   0  0  0  0  0  0  0  0  0  0  0  0
    9.5604   -1.7917   23.2380 C   0  0  1  0  0  0  0  0  0  0  0  0
    8.6631   -2.0098   24.4348 C   0  0  1  0  0  0  0  0  0  0  0  0
   10.8466    0.4383   23.1596 C   0  0  1  0  0  0  0  0  0  0  0  0
   10.5147    1.5766   24.1145 C   0  0  0  0  0  0  0  0  0  0  0  0
    9.4886    1.4520   25.0401 C   0  0  0  0  0  0  0  0  0  0  0  0
    9.1269    2.5209   25.8435 C   0  0  0  0  0  0  0  0  0  0  0  0
    9.7869    3.7246   25.7350 C   0  0  0  0  0  0  0  0  0  0  0  0
   10.8183    3.8591   24.8323 C   0  0  0  0  0  0  0  0  0  0  0  0
   11.1850    2.7895   24.0299 C   0  0  0  0  0  0  0  0  0  0  0  0
   12.0539   -0.4179   23.5240 C   0  0  0  0  0  0  0  0  0  0  0  0
   13.0474   -0.6324   22.5824 C   0  0  0  0  0  0  0  0  0  0  0  0
   14.1166   -1.4653   22.8595 C   0  0  0  0  0  0  0  0  0  0  0  0
   14.2238   -2.0703   24.0881 C   0  0  0  0  0  0  0  0  0  0  0  0
   13.2648   -1.8461   25.0438 C   0  0  0  0  0  0  0  0  0  0  0  0
   12.1821   -1.0267   24.7660 C   0  0  0  0  0  0  0  0  0  0  0  0
    8.3355   -1.7248   20.8146 H   0  0  0  0  0  0  0  0  0  0  0  0
    7.1086   -1.0857   21.9604 H   0  0  0  0  0  0  0  0  0  0  0  0
    5.4414    0.8952   22.1535 H   0  0  0  0  0  0  0  0  0  0  0  0
    3.5081    2.3142   21.5182 H   0  0  0  0  0  0  0  0  0  0  0  0
    3.0460    2.8126   19.1576 H   0  0  0  0  0  0  0  0  0  0  0  0
    4.4887    1.8997   17.3703 H   0  0  0  0  0  0  0  0  0  0  0  0
    9.1733   -2.3948   22.4035 H   0  0  0  0  0  0  0  0  0  0  0  0
   10.5723   -2.1347   23.4997 H   0  0  0  0  0  0  0  0  0  0  0  0
    8.6553   -3.0779   24.6981 H   0  0  0  0  0  0  0  0  0  0  0  0
    9.0399   -1.4250   25.2868 H   0  0  0  0  0  0  0  0  0  0  0  0
    7.6409   -1.6852   24.1905 H   0  0  0  0  0  0  0  0  0  0  0  0
   11.1453    0.9441   22.2296 H   0  0  0  0  0  0  0  0  0  0  0  0
    8.9662    0.5115   25.1351 H   0  0  0  0  0  0  0  0  0  0  0  0
    8.3244    2.4098   26.5577 H   0  0  0  0  0  0  0  0  0  0  0  0
    9.4968    4.5598   26.3553 H   0  0  0  0  0  0  0  0  0  0  0  0
   11.3426    4.7997   24.7492 H   0  0  0  0  0  0  0  0  0  0  0  0
   12.0010    2.9010   23.3314 H   0  0  0  0  0  0  0  0  0  0  0  0
   12.9863   -0.1437   21.6212 H   0  0  0  0  0  0  0  0  0  0  0  0
   14.8705   -1.6407   22.1063 H   0  0  0  0  0  0  0  0  0  0  0  0
   15.0598   -2.7200   24.3011 H   0  0  0  0  0  0  0  0  0  0  0  0
   13.3541   -2.3095   26.0152 H   0  0  0  0  0  0  0  0  0  0  0  0
   11.4303   -0.8598   25.5231 H   0  0  0  0  0  0  0  0  0  0  0  0
  1  2  2  0
  2  3  1  0
  2 13  1  0
  3  4  1  0
  3 29  1  6
  3 30  1  0
  4  5  1  0
  4 12  1  0
  5  6  2  0
  5 10  1  0
  6  7  1  0
  6 31  1  0
  7  8  2  0
  7 32  1  0
  8  9  1  0
  8 33  1  0
  9 10  2  0
  9 34  1  0
 10 11  1  0
 11 12  2  0
 13 14  1  0
 13 16  1  0
 14 15  1  0
 14 35  1  6
 14 36  1  0
 15 37  1  1
 15 38  1  0
 15 39  1  0
 16 17  1  0
 16 23  1  0
 16 40  1  6
 17 18  2  0
 17 22  1  0
 18 19  1  0
 18 41  1  0
 19 20  2  0
 19 42  1  0
 20 21  1  0
 20 43  1  0
 21 22  2  0
 21 44  1  0
 22 45  1  0
 23 24  2  0
 23 28  1  0
 24 25  1  0
 24 46  1  0
 25 26  2  0
 25 47  1  0
 26 27  1  0
 26 48  1  0
 27 28  2  0
 27 49  1  0
 28 50  1  0
M  END
$$$$
