LIG(A-306)
     RDKit          3D

 34 36  0  0  0  0  0  0  0  0999 V2000
  -14.3346   -2.3966  -21.6364 Cl  0  0  0  0  0  0  0  0  0  0  0  0
  -13.0736   -1.5715  -22.5016 C   0  0  0  0  0  0  0  0  0  0  0  0
  -13.3722   -0.5646  -23.4136 C   0  0  0  0  0  0  0  0  0  0  0  0
  -15.0112   -0.0883  -23.7221 Cl  0  0  0  0  0  0  0  0  0  0  0  0
  -12.3501    0.1018  -24.0631 C   0  0  0  0  0  0  0  0  0  0  0  0
  -11.0349   -0.2301  -23.8005 C   0  0  0  0  0  0  0  0  0  0  0  0
  -11.7590   -1.9094  -22.2359 C   0  0  0  0  0  0  0  0  0  0  0  0
  -10.7297   -1.2276  -22.8797 C   0  0  0  0  0  0  0  0  0  0  0  0
   -9.2953   -1.5644  -22.5676 C   0  0  1  0  0  0  0  0  0  0  0  0
   -9.2109   -2.8575  -22.1422 F   0  0  0  0  0  0  0  0  0  0  0  0
   -8.5497   -1.5030  -23.7079 F   0  0  0  0  0  0  0  0  0  0  0  0
   -8.7073   -0.5968  -21.5066 C   0  0  0  0  0  0  0  0  0  0  0  0
   -9.0681    0.5724  -21.4052 O   0  0  0  0  0  0  0  0  0  0  0  0
   -7.8561   -1.1533  -20.6291 N   0  0  0  0  0  0  0  0  0  0  0  0
   -6.8288   -0.6470  -19.8207 C   0  0  0  0  0  0  0  0  0  0  0  0
   -5.8598    0.2924  -20.3087 C   0  0  0  0  0  0  0  0  0  0  0  0
   -5.4806    0.4032  -21.6719 C   0  0  0  0  0  0  0  0  0  0  0  0
   -4.4624    1.2346  -22.0568 C   0  0  0  0  0  0  0  0  0  0  0  0
   -3.7836    2.0027  -21.1229 C   0  0  0  0  0  0  0  0  0  0  0  0
   -4.1149    1.9410  -19.8002 C   0  0  0  0  0  0  0  0  0  0  0  0
   -5.1517    1.0795  -19.3565 C   0  0  0  0  0  0  0  0  0  0  0  0
   -5.4745    0.9046  -17.9931 C   0  0  0  0  0  0  0  0  0  0  0  0
   -6.3604    0.0332  -17.5423 N   0  0  0  0  0  0  0  0  0  0  0  0
   -6.9870   -0.7287  -18.4410 C   0  0  0  0  0  0  0  0  0  0  0  0
  -12.5794    0.8810  -24.7749 H   0  0  0  0  0  0  0  0  0  0  0  0
  -10.2383    0.2883  -24.3135 H   0  0  0  0  0  0  0  0  0  0  0  0
  -11.5322   -2.6975  -21.5331 H   0  0  0  0  0  0  0  0  0  0  0  0
   -7.9823   -2.1406  -20.5314 H   0  0  0  0  0  0  0  0  0  0  0  0
   -6.0032   -0.1774  -22.4176 H   0  0  0  0  0  0  0  0  0  0  0  0
   -4.1853    1.2925  -23.0990 H   0  0  0  0  0  0  0  0  0  0  0  0
   -2.9858    2.6555  -21.4449 H   0  0  0  0  0  0  0  0  0  0  0  0
   -3.5840    2.5526  -19.0857 H   0  0  0  0  0  0  0  0  0  0  0  0
   -4.9638    1.5239  -17.2706 H   0  0  0  0  0  0  0  0  0  0  0  0
   -7.6751   -1.4716  -18.0655 H   0  0  0  0  0  0  0  0  0  0  0  0
  1  2  1  0
  2  3  2  0
  2  7  1  0
  3  4  1  0
  3  5  1  0
  5  6  2  0
  5 25  1  0
  6  8  1  0
  6 26  1  0
  7  8  2  0
  7 27  1  0
  8  9  1  0
  9 10  1  1
  9 11  1  0
  9 12  1  0
 12 13  2  0
 12 14  1  0
 14 15  1  0
 14 28  1  0
 15 16  2  0
 15 24  1  0
 16 17  1  0
 16 21  1  0
 17 18  2  0
 17 29  1  0
 18 19  1  0
 18 30  1  0
 19 20  2  0
 19 31  1  0
 20 21  1  0
 20 32  1  0
 21 22  2  0
 22 23  1  0
 22 33  1  0
 23 24  2  0
 24 34  1  0
M  END
$$$$
