LIG(A-305)
     RDKit          3D

 30 31  0  0  0  0  0  0  0  0999 V2000
    6.8070   -3.7373   21.8205 N   0  0  0  0  0  0  0  0  0  0  0  0
    8.3979   -3.3616   20.1113 C   0  0  1  0  0  0  0  0  0  0  0  0
    6.1727   -4.1172   19.6615 O   0  0  0  0  0  0  0  0  0  0  0  0
    7.0019   -3.7833   20.4914 C   0  0  0  0  0  0  0  0  0  0  0  0
    3.4469   -2.0848   27.3008 C   0  0  1  0  0  0  0  0  0  0  0  0
    4.3827   -2.5330   26.2117 C   0  0  0  0  0  0  0  0  0  0  0  0
    5.8540   -4.4142   22.6125 C   0  0  0  0  0  0  0  0  0  0  0  0
    5.5057   -5.7491   22.4136 C   0  0  0  0  0  0  0  0  0  0  0  0
    4.5737   -6.3360   23.2507 C   0  0  0  0  0  0  0  0  0  0  0  0
    3.9900   -5.6189   24.2807 C   0  0  0  0  0  0  0  0  0  0  0  0
    4.3492   -4.2919   24.4727 C   0  0  0  0  0  0  0  0  0  0  0  0
    5.2812   -3.6831   23.6416 C   0  0  0  0  0  0  0  0  0  0  0  0
    2.3714   -3.7426   25.9499 C   0  0  1  0  0  0  0  0  0  0  0  0
    2.0787   -2.5486   26.8330 C   0  0  2  0  0  0  0  0  0  0  0  0
    3.7584   -3.5328   25.5188 N   0  0  0  0  0  0  0  0  0  0  0  0
    5.4877   -2.0881   25.9636 O   0  0  0  0  0  0  0  0  0  0  0  0
    7.4283   -3.1352   22.3220 H   0  0  0  0  0  0  0  0  0  0  0  0
    8.5117   -3.4111   19.0183 H   0  0  0  0  0  0  0  0  0  0  0  0
    8.5749   -2.3307   20.4519 H   0  0  0  0  0  0  0  0  0  0  0  0
    9.1264   -4.0350   20.5865 H   0  0  0  0  0  0  0  0  0  0  0  0
    3.7110   -2.5549   28.2596 H   0  0  0  0  0  0  0  0  0  0  0  0
    3.4713   -0.9905   27.4099 H   0  0  0  0  0  0  0  0  0  0  0  0
    5.9583   -6.3186   21.6152 H   0  0  0  0  0  0  0  0  0  0  0  0
    4.2975   -7.3688   23.0983 H   0  0  0  0  0  0  0  0  0  0  0  0
    3.2629   -6.0868   24.9280 H   0  0  0  0  0  0  0  0  0  0  0  0
    5.5568   -2.6502   23.7958 H   0  0  0  0  0  0  0  0  0  0  0  0
    2.2755   -4.6808   26.5162 H   0  0  0  0  0  0  0  0  0  0  0  0
    1.6922   -3.7653   25.0850 H   0  0  0  0  0  0  0  0  0  0  0  0
    1.5727   -1.7562   26.2619 H   0  0  0  0  0  0  0  0  0  0  0  0
    1.4525   -2.8408   27.6887 H   0  0  0  0  0  0  0  0  0  0  0  0
  1  4  1  0
  1  7  1  0
  1 17  1  0
  2  4  1  0
  2 18  1  6
  2 19  1  0
  2 20  1  0
  3  4  2  0
  5  6  1  0
  5 14  1  0
  5 21  1  1
  5 22  1  0
  6 15  1  0
  6 16  2  0
  7  8  2  0
  7 12  1  0
  8  9  1  0
  8 23  1  0
  9 10  2  0
  9 24  1  0
 10 11  1  0
 10 25  1  0
 11 12  2  0
 11 15  1  0
 12 26  1  0
 13 14  1  0
 13 15  1  0
 13 27  1  1
 13 28  1  0
 14 29  1  6
 14 30  1  0
M  END
$$$$
