LIG(A-305)
     RDKit          3D

 48 51  0  0  0  0  0  0  0  0999 V2000
    9.2453    1.3154   21.0740 O   0  0  0  0  0  0  0  0  0  0  0  0
    8.9683    0.2944   21.6880 C   0  0  0  0  0  0  0  0  0  0  0  0
    8.2162   -0.8506   21.0081 C   0  0  1  0  0  0  0  0  0  0  0  0
    7.3282   -0.3715   19.9701 N   0  0  0  0  0  0  0  0  0  0  0  0
    6.2053    0.3925   20.0671 C   0  0  0  0  0  0  0  0  0  0  0  0
    5.3983    0.7856   21.1271 C   0  0  0  0  0  0  0  0  0  0  0  0
    4.3083    1.5986   20.8391 C   0  0  0  0  0  0  0  0  0  0  0  0
    4.0363    1.9976   19.5321 C   0  0  0  0  0  0  0  0  0  0  0  0
    4.8513    1.6006   18.4811 C   0  0  0  0  0  0  0  0  0  0  0  0
    5.9473    0.7885   18.7581 C   0  0  0  0  0  0  0  0  0  0  0  0
    6.9232    0.2645   17.9401 N   0  0  0  0  0  0  0  0  0  0  0  0
    7.7462   -0.4266   18.6801 N   0  0  0  0  0  0  0  0  0  0  0  0
    9.2993    0.1154   22.9980 N   0  0  0  0  0  0  0  0  0  0  0  0
    9.7074    1.2784   23.7790 C   0  0  1  0  0  0  0  0  0  0  0  0
   11.0204    1.8433   23.3350 C   0  0  0  0  0  0  0  0  0  0  0  0
   11.0395    3.1423   22.8480 N   0  0  0  0  0  0  0  0  0  0  0  0
   12.2525    3.4622   22.5219 C   0  0  0  0  0  0  0  0  0  0  0  0
   13.4324    2.2531   22.7809 S   0  0  0  0  0  0  0  0  0  0  0  0
   12.2164    1.2232   23.3640 C   0  0  0  0  0  0  0  0  0  0  0  0
    9.1592   -1.1236   23.6841 C   0  0  0  0  0  0  0  0  0  0  0  0
    9.9622   -2.2086   23.3571 C   0  0  0  0  0  0  0  0  0  0  0  0
    9.8601   -3.3876   24.0701 C   0  0  0  0  0  0  0  0  0  0  0  0
    8.2423   -1.2395   24.7161 C   0  0  0  0  0  0  0  0  0  0  0  0
    8.1532   -2.4095   25.4471 C   0  0  0  0  0  0  0  0  0  0  0  0
    8.9631   -3.5066   25.1411 C   0  0  0  0  0  0  0  0  0  0  0  0
    8.8911   -4.6656   25.8771 N   0  0  0  0  0  0  0  0  0  0  0  0
    7.6901   -5.0015   26.6271 C   0  0  1  0  0  0  0  0  0  0  0  0
    9.7320   -5.8026   25.5431 C   0  0  1  0  0  0  0  0  0  0  0  0
    8.9472   -1.5400   20.5606 H   0  0  0  0  0  0  0  0  0  0  0  0
    7.6232   -1.3854   21.7646 H   0  0  0  0  0  0  0  0  0  0  0  0
    5.6101    0.4709   22.1383 H   0  0  0  0  0  0  0  0  0  0  0  0
    3.6626    1.9261   21.6405 H   0  0  0  0  0  0  0  0  0  0  0  0
    3.1795    2.6246   19.3341 H   0  0  0  0  0  0  0  0  0  0  0  0
    4.6395    1.9151   17.4698 H   0  0  0  0  0  0  0  0  0  0  0  0
    8.9373    2.0574   23.6780 H   0  0  0  0  0  0  0  0  0  0  0  0
    9.7917    0.9809   24.8346 H   0  0  0  0  0  0  0  0  0  0  0  0
   12.5015    4.4303   22.1130 H   0  0  0  0  0  0  0  0  0  0  0  0
   12.3782    0.2129   23.7097 H   0  0  0  0  0  0  0  0  0  0  0  0
   10.6681   -2.1306   22.5434 H   0  0  0  0  0  0  0  0  0  0  0  0
   10.4800   -4.2294   23.7987 H   0  0  0  0  0  0  0  0  0  0  0  0
    7.5922   -0.4098   24.9513 H   0  0  0  0  0  0  0  0  0  0  0  0
    7.4498   -2.4765   26.2639 H   0  0  0  0  0  0  0  0  0  0  0  0
    7.8361   -5.9618   27.1433 H   0  0  0  0  0  0  0  0  0  0  0  0
    7.4884   -4.2140   27.3681 H   0  0  0  0  0  0  0  0  0  0  0  0
    6.8375   -5.0824   25.9369 H   0  0  0  0  0  0  0  0  0  0  0  0
    9.5293   -6.6272   26.2423 H   0  0  0  0  0  0  0  0  0  0  0  0
    9.5138   -6.1308   24.5161 H   0  0  0  0  0  0  0  0  0  0  0  0
   10.7899   -5.5106   25.6177 H   0  0  0  0  0  0  0  0  0  0  0  0
  1  2  2  0
  2  3  1  0
  2 13  1  0
  3  4  1  0
  3 29  1  6
  3 30  1  0
  4  5  1  0
  4 12  1  0
  5  6  2  0
  5 10  1  0
  6  7  1  0
  6 31  1  0
  7  8  2  0
  7 32  1  0
  8  9  1  0
  8 33  1  0
  9 10  2  0
  9 34  1  0
 10 11  1  0
 11 12  2  0
 13 14  1  0
 13 20  1  0
 14 15  1  0
 14 35  1  1
 14 36  1  0
 15 16  1  0
 15 19  2  0
 16 17  2  0
 17 18  1  0
 17 37  1  0
 18 19  1  0
 19 38  1  0
 20 21  2  0
 20 23  1  0
 21 22  1  0
 21 39  1  0
 22 25  2  0
 22 40  1  0
 23 24  2  0
 23 41  1  0
 24 25  1  0
 24 42  1  0
 25 26  1  0
 26 27  1  0
 26 28  1  0
 27 43  1  1
 27 44  1  0
 27 45  1  0
 28 46  1  1
 28 47  1  0
 28 48  1  0
M  END
$$$$
