LIG(A-305)
     RDKit          3D

 43 45  0  0  0  0  0  0  0  0999 V2000
    8.7382    0.6068   20.8676 O   0  0  0  0  0  0  0  0  0  0  0  0
    8.1741   -0.4732   21.0148 C   0  0  0  0  0  0  0  0  0  0  0  0
    7.0460   -0.8221   20.3751 N   0  0  0  0  0  0  0  0  0  0  0  0
    6.3798   -0.0352   19.4201 C   0  0  0  0  0  0  0  0  0  0  0  0
    5.2450    0.7029   19.7913 C   0  0  0  0  0  0  0  0  0  0  0  0
    4.7502    0.7451   21.2144 C   0  0  1  0  0  0  0  0  0  0  0  0
    4.6368    1.4759   18.8093 C   0  0  0  0  0  0  0  0  0  0  0  0
    5.1736    1.5037   17.5372 C   0  0  0  0  0  0  0  0  0  0  0  0
    6.2674    0.8176   17.1791 N   0  0  0  0  0  0  0  0  0  0  0  0
    6.8496    0.0537   18.1120 C   0  0  0  0  0  0  0  0  0  0  0  0
    8.6962   -1.5301   21.9668 C   0  0  1  0  0  0  0  0  0  0  0  0
    9.9904   -1.0911   22.6035 C   0  0  0  0  0  0  0  0  0  0  0  0
   11.2053   -1.5493   22.1083 C   0  0  0  0  0  0  0  0  0  0  0  0
   12.3774   -1.1543   22.7150 C   0  0  0  0  0  0  0  0  0  0  0  0
   13.8832   -1.8265   22.1568 Cl  0  0  0  0  0  0  0  0  0  0  0  0
   12.3847   -0.2982   23.7969 C   0  0  0  0  0  0  0  0  0  0  0  0
    9.9747   -0.2420   23.7014 C   0  0  0  0  0  0  0  0  0  0  0  0
   11.1678    0.1369   24.2961 C   0  0  0  0  0  0  0  0  0  0  0  0
   11.2571    0.9730   25.3801 O   0  0  0  0  0  0  0  0  0  0  0  0
   10.0652    1.5762   25.9002 C   0  0  1  0  0  0  0  0  0  0  0  0
    9.3093    0.6283   26.7665 C   0  0  0  0  0  0  0  0  0  0  0  0
    9.8794   -0.5037   27.2015 O   0  0  0  0  0  0  0  0  0  0  0  0
    8.9035   -1.1425   28.0137 N   0  0  0  0  0  0  0  0  0  0  0  0
    8.1044    0.7934   27.1897 N   0  0  0  0  0  0  0  0  0  0  0  0
    7.8945   -0.3235   27.9608 C   0  0  0  0  0  0  0  0  0  0  0  0
    6.6006   -0.5463   28.6571 C   0  0  1  0  0  0  0  0  0  0  0  0
    6.6483   -1.7128   20.5958 H   0  0  0  0  0  0  0  0  0  0  0  0
    5.5354    1.1593   21.8639 H   0  0  0  0  0  0  0  0  0  0  0  0
    3.8540    1.3801   21.2722 H   0  0  0  0  0  0  0  0  0  0  0  0
    4.5000   -0.2735   21.5457 H   0  0  0  0  0  0  0  0  0  0  0  0
    3.7515    2.0502   19.0392 H   0  0  0  0  0  0  0  0  0  0  0  0
    4.6850    2.1117   16.7902 H   0  0  0  0  0  0  0  0  0  0  0  0
    7.7229   -0.5195   17.8377 H   0  0  0  0  0  0  0  0  0  0  0  0
    7.9489   -1.7055   22.7547 H   0  0  0  0  0  0  0  0  0  0  0  0
    8.8676   -2.4631   21.4098 H   0  0  0  0  0  0  0  0  0  0  0  0
   11.2304   -2.2100   21.2544 H   0  0  0  0  0  0  0  0  0  0  0  0
   13.3141    0.0241   24.2427 H   0  0  0  0  0  0  0  0  0  0  0  0
    9.0356    0.1222   24.0911 H   0  0  0  0  0  0  0  0  0  0  0  0
   10.3412    2.4605   26.4933 H   0  0  0  0  0  0  0  0  0  0  0  0
    9.4239    1.8831   25.0609 H   0  0  0  0  0  0  0  0  0  0  0  0
    6.7742   -0.6159   29.7411 H   0  0  0  0  0  0  0  0  0  0  0  0
    5.9223    0.2939   28.4477 H   0  0  0  0  0  0  0  0  0  0  0  0
    6.1474   -1.4820   28.2977 H   0  0  0  0  0  0  0  0  0  0  0  0
  1  2  2  0
  2  3  1  0
  2 11  1  0
  3  4  1  0
  3 27  1  0
  4  5  2  0
  4 10  1  0
  5  6  1  0
  5  7  1  0
  6 28  1  1
  6 29  1  0
  6 30  1  0
  7  8  2  0
  7 31  1  0
  8  9  1  0
  8 32  1  0
  9 10  2  0
 10 33  1  0
 11 12  1  0
 11 34  1  1
 11 35  1  0
 12 13  2  0
 12 17  1  0
 13 14  1  0
 13 36  1  0
 14 15  1  0
 14 16  2  0
 16 18  1  0
 16 37  1  0
 17 18  2  0
 17 38  1  0
 18 19  1  0
 19 20  1  0
 20 21  1  0
 20 39  1  1
 20 40  1  0
 21 22  1  0
 21 24  2  0
 22 23  1  0
 23 25  2  0
 24 25  1  0
 25 26  1  0
 26 41  1  1
 26 42  1  0
 26 43  1  0
M  END
$$$$
