LIG(A-305)
     RDKit          3D

 33 35  0  0  0  0  0  0  0  0999 V2000
    8.9124    0.8094   21.0391 O   0  0  0  0  0  0  0  0  0  0  0  0
    8.3564   -0.2406   21.3571 C   0  0  0  0  0  0  0  0  0  0  0  0
    8.8575   -1.0946   22.5051 C   0  0  1  0  0  0  0  0  0  0  0  0
   10.3125   -0.8016   22.7951 C   0  0  0  0  0  0  0  0  0  0  0  0
   10.6775    0.1514   23.7350 C   0  0  0  0  0  0  0  0  0  0  0  0
   12.0085    0.4965   23.9160 C   0  0  0  0  0  0  0  0  0  0  0  0
   12.9975   -0.1075   23.1540 C   0  0  0  0  0  0  0  0  0  0  0  0
   11.3085   -1.4356   22.0601 C   0  0  0  0  0  0  0  0  0  0  0  0
   12.6275   -1.0756   22.2400 C   0  0  0  0  0  0  0  0  0  0  0  0
   13.8524   -1.8536   21.2670 Cl  0  0  0  0  0  0  0  0  0  0  0  0
    7.2494   -0.6997   20.7501 N   0  0  0  0  0  0  0  0  0  0  0  0
    6.5454   -0.0817   19.6951 C   0  0  0  0  0  0  0  0  0  0  0  0
    5.3794    0.6813   20.0122 C   0  0  0  0  0  0  0  0  0  0  0  0
    4.8514    0.8163   21.3152 C   0  0  0  0  0  0  0  0  0  0  0  0
    3.7364    1.5753   21.5182 C   0  0  0  0  0  0  0  0  0  0  0  0
    3.1424    2.2023   20.4262 C   0  0  0  0  0  0  0  0  0  0  0  0
    3.5903    2.1232   19.1822 N   0  0  0  0  0  0  0  0  0  0  0  0
    4.7183    1.3642   18.9642 C   0  0  0  0  0  0  0  0  0  0  0  0
    5.3083    1.2242   17.6661 C   0  0  0  0  0  0  0  0  0  0  0  0
    6.3913    0.5242   17.3731 N   0  0  0  0  0  0  0  0  0  0  0  0
    6.9914   -0.1177   18.3791 C   0  0  0  0  0  0  0  0  0  0  0  0
    8.2599   -0.8788   23.4031 H   0  0  0  0  0  0  0  0  0  0  0  0
    8.7492   -2.1564   22.2391 H   0  0  0  0  0  0  0  0  0  0  0  0
    9.9161    0.6302   24.3328 H   0  0  0  0  0  0  0  0  0  0  0  0
   12.2760    1.2387   24.6535 H   0  0  0  0  0  0  0  0  0  0  0  0
   14.0338    0.1725   23.2724 H   0  0  0  0  0  0  0  0  0  0  0  0
   11.0498   -2.2076   21.3505 H   0  0  0  0  0  0  0  0  0  0  0  0
    6.8862   -1.5708   21.0808 H   0  0  0  0  0  0  0  0  0  0  0  0
    5.3286    0.3205   22.1476 H   0  0  0  0  0  0  0  0  0  0  0  0
    3.3215    1.6880   22.5089 H   0  0  0  0  0  0  0  0  0  0  0  0
    2.2563    2.7930   20.6056 H   0  0  0  0  0  0  0  0  0  0  0  0
    4.8229    1.7388   16.8501 H   0  0  0  0  0  0  0  0  0  0  0  0
    7.8744   -0.6985   18.1571 H   0  0  0  0  0  0  0  0  0  0  0  0
  1  2  2  0
  2  3  1  0
  2 11  1  0
  3  4  1  0
  3 22  1  1
  3 23  1  0
  4  5  2  0
  4  8  1  0
  5  6  1  0
  5 24  1  0
  6  7  2  0
  6 25  1  0
  7  9  1  0
  7 26  1  0
  8  9  2  0
  8 27  1  0
  9 10  1  0
 11 12  1  0
 11 28  1  0
 12 13  2  0
 12 21  1  0
 13 14  1  0
 13 18  1  0
 14 15  2  0
 14 29  1  0
 15 16  1  0
 15 30  1  0
 16 17  2  0
 16 31  1  0
 17 18  1  0
 18 19  2  0
 19 20  1  0
 19 32  1  0
 20 21  2  0
 21 33  1  0
M  END
$$$$
