LIG(A-306)
     RDKit          3D

 49 52  0  0  1  0  0  0  0  0999 V2000
   -9.7343    0.7714  -20.8393 O   0  0  0  0  0  0  0  0  0  0  0  0
   -9.2697   -0.2666  -21.2894 C   0  0  0  0  0  0  0  0  0  0  0  0
   -9.9052   -0.9402  -22.5300 C   0  0  1  0  0  0  0  0  0  0  0  0
  -11.4202   -0.7431  -22.5757 C   0  0  0  0  0  0  0  0  0  0  0  0
  -12.2559   -1.5445  -21.7993 C   0  0  0  0  0  0  0  0  0  0  0  0
  -13.6086   -1.2713  -21.7581 C   0  0  0  0  0  0  0  0  0  0  0  0
  -14.6067   -2.1419  -20.6226 Cl  0  0  0  0  0  0  0  0  0  0  0  0
  -14.1697   -0.2546  -22.5021 C   0  0  0  0  0  0  0  0  0  0  0  0
  -13.3549    0.5347  -23.2927 C   0  0  0  0  0  0  0  0  0  0  0  0
  -11.9918    0.2831  -23.3286 C   0  0  0  0  0  0  0  0  0  0  0  0
  -11.3049    0.9516  -24.3100 O   0  0  0  0  0  0  0  0  0  0  0  0
  -10.0817    0.3214  -24.7422 C   0  0  1  0  0  0  0  0  0  0  0  0
   -9.1717   -0.1087  -23.6128 C   0  0  2  0  0  0  0  0  0  0  0  0
   -9.6136   -2.4627  -22.5940 C   0  0  1  0  0  0  0  0  0  0  0  0
   -8.3259   -2.8217  -23.3033 C   0  0  0  0  0  0  0  0  0  0  0  0
   -7.2257   -2.6013  -22.7979 O   0  0  0  0  0  0  0  0  0  0  0  0
   -8.4621   -3.4238  -24.4794 N   0  0  0  0  0  0  0  0  0  0  0  0
   -7.3225   -3.8986  -25.2441 C   0  0  1  0  0  0  0  0  0  0  0  0
   -8.1297   -0.8106  -20.7940 N   0  0  0  0  0  0  0  0  0  0  0  0
   -7.2956   -0.2871  -19.7828 C   0  0  0  0  0  0  0  0  0  0  0  0
   -6.1462    0.4762  -20.1641 C   0  0  0  0  0  0  0  0  0  0  0  0
   -5.7060    0.6256  -21.5065 C   0  0  0  0  0  0  0  0  0  0  0  0
   -4.6086    1.3845  -21.8065 C   0  0  0  0  0  0  0  0  0  0  0  0
   -3.9005    2.0332  -20.8011 C   0  0  0  0  0  0  0  0  0  0  0  0
   -4.2763    1.9085  -19.4936 C   0  0  0  0  0  0  0  0  0  0  0  0
   -5.4004    1.1197  -19.1374 C   0  0  0  0  0  0  0  0  0  0  0  0
   -5.8242    0.9338  -17.7996 C   0  0  0  0  0  0  0  0  0  0  0  0
   -6.8694    0.2020  -17.4442 N   0  0  0  0  0  0  0  0  0  0  0  0
   -7.5750   -0.3859  -18.4190 C   0  0  0  0  0  0  0  0  0  0  0  0
  -11.8491   -2.3710  -21.2355 H   0  0  0  0  0  0  0  0  0  0  0  0
  -15.2344   -0.0768  -22.4675 H   0  0  0  0  0  0  0  0  0  0  0  0
  -13.7761    1.3396  -23.8767 H   0  0  0  0  0  0  0  0  0  0  0  0
  -10.3427   -0.5692  -25.3328 H   0  0  0  0  0  0  0  0  0  0  0  0
   -9.5322    1.0333  -25.3756 H   0  0  0  0  0  0  0  0  0  0  0  0
   -8.3571   -0.7181  -24.0313 H   0  0  0  0  0  0  0  0  0  0  0  0
   -8.7508    0.7905  -23.1394 H   0  0  0  0  0  0  0  0  0  0  0  0
   -9.5581   -2.8463  -21.5645 H   0  0  0  0  0  0  0  0  0  0  0  0
  -10.4456   -2.9508  -23.1228 H   0  0  0  0  0  0  0  0  0  0  0  0
   -9.3811   -3.5546  -24.8512 H   0  0  0  0  0  0  0  0  0  0  0  0
   -7.6739   -4.3605  -26.1785 H   0  0  0  0  0  0  0  0  0  0  0  0
   -6.6609   -3.0520  -25.4799 H   0  0  0  0  0  0  0  0  0  0  0  0
   -6.7689   -4.6430  -24.6529 H   0  0  0  0  0  0  0  0  0  0  0  0
   -7.8476   -1.6838  -21.1916 H   0  0  0  0  0  0  0  0  0  0  0  0
   -6.2458    0.1328  -22.3016 H   0  0  0  0  0  0  0  0  0  0  0  0
   -4.2891    1.4808  -22.8336 H   0  0  0  0  0  0  0  0  0  0  0  0
   -3.0453    2.6414  -21.0562 H   0  0  0  0  0  0  0  0  0  0  0  0
   -3.7126    2.4151  -18.7242 H   0  0  0  0  0  0  0  0  0  0  0  0
   -5.2588    1.4200  -17.0183 H   0  0  0  0  0  0  0  0  0  0  0  0
   -8.4264   -0.9828  -18.1269 H   0  0  0  0  0  0  0  0  0  0  0  0
  1  2  2  0
  3  2  1  1
  2 19  1  0
  3  4  1  0
  3 13  1  0
  3 14  1  0
  4  5  2  0
  4 10  1  0
  5  6  1  0
  5 30  1  0
  6  7  1  0
  6  8  2  0
  8  9  1  0
  8 31  1  0
  9 10  2  0
  9 32  1  0
 10 11  1  0
 11 12  1  0
 12 13  1  0
 12 33  1  6
 12 34  1  0
 13 35  1  6
 13 36  1  0
 14 15  1  0
 14 37  1  1
 14 38  1  0
 15 16  2  0
 15 17  1  0
 17 18  1  0
 17 39  1  0
 18 40  1  6
 18 41  1  0
 18 42  1  0
 19 20  1  0
 19 43  1  0
 20 21  2  0
 20 29  1  0
 21 22  1  0
 21 26  1  0
 22 23  2  0
 22 44  1  0
 23 24  1  0
 23 45  1  0
 24 25  2  0
 24 46  1  0
 25 26  1  0
 25 47  1  0
 26 27  2  0
 27 28  1  0
 27 48  1  0
 28 29  2  0
 29 49  1  0
M  END
$$$$
