LIG(A-304)
     RDKit          3D

 71 73  0  0  1  0  0  0  0  0999 V2000
   -6.3779    1.2890  -18.1037 C   0  0  0  0  0  0  0  0  0  0  0  0
   -7.6548   -3.2885  -19.5435 C   0  0  1  0  0  0  0  0  0  0  0  0
   -9.0642   -0.8741  -21.6103 C   0  0  0  0  0  0  0  0  0  0  0  0
  -10.0874    1.9495  -21.9033 C   0  0  0  0  0  0  0  0  0  0  0  0
  -12.1151    4.4554  -22.5565 C   0  0  0  0  0  0  0  0  0  0  0  0
   -5.5865    0.5246  -20.2002 C   0  0  1  0  0  0  0  0  0  0  0  0
   -4.9716    1.8815  -19.9014 C   0  0  1  0  0  0  0  0  0  0  0  0
  -10.9272    0.7077  -23.9676 C   0  0  1  0  0  0  0  0  0  0  0  0
   -6.8105    0.4297  -19.2811 C   0  0  1  0  0  0  0  0  0  0  0  0
  -10.4927   -0.4739  -21.8338 C   0  0  2  0  0  0  0  0  0  0  0  0
  -11.4581   -0.6934  -24.0652 C   0  0  1  0  0  0  0  0  0  0  0  0
  -11.1792   -1.4149  -22.7809 C   0  0  2  0  0  0  0  0  0  0  0  0
  -12.6234   -1.2046  -23.2328 C   0  0  1  0  0  0  0  0  0  0  0  0
  -13.4610   -0.2374  -22.4579 C   0  0  1  0  0  0  0  0  0  0  0  0
  -13.3366   -2.3853  -23.7712 C   0  0  1  0  0  0  0  0  0  0  0  0
   -8.7547    4.9684  -23.8626 C   0  0  1  0  0  0  0  0  0  0  0  0
   -7.7733    2.7167  -23.5884 C   0  0  1  0  0  0  0  0  0  0  0  0
   -7.9750    4.2664  -21.6673 C   0  0  1  0  0  0  0  0  0  0  0  0
   -7.0214   -0.9942  -18.8136 C   0  0  1  0  0  0  0  0  0  0  0  0
   -7.5389   -1.8506  -19.9600 C   0  0  2  0  0  0  0  0  0  0  0  0
  -10.0432    3.2300  -22.7063 C   0  0  2  0  0  0  0  0  0  0  0  0
  -13.0104    5.2000  -21.6149 C   0  0  2  0  0  0  0  0  0  0  0  0
   -8.6430    3.7754  -22.9428 C   0  0  1  0  0  0  0  0  0  0  0  0
   -6.6206   -4.0589  -19.5340 N   0  0  0  0  0  0  0  0  0  0  0  0
   -5.3892    2.1491  -18.5483 N   0  0  0  0  0  0  0  0  0  0  0  0
  -10.4166    0.7959  -22.5777 N   0  0  0  0  0  0  0  0  0  0  0  0
   -8.8624   -1.4609  -20.3854 N   0  0  0  0  0  0  0  0  0  0  0  0
  -10.9127    4.1259  -21.9993 N   0  0  0  0  0  0  0  0  0  0  0  0
   -6.8230    1.2239  -16.9695 O   0  0  0  0  0  0  0  0  0  0  0  0
   -8.1913   -0.6783  -22.4398 O   0  0  0  0  0  0  0  0  0  0  0  0
   -9.8625    1.9276  -20.7062 O   0  0  0  0  0  0  0  0  0  0  0  0
  -12.4236    4.2253  -23.7158 O   0  0  0  0  0  0  0  0  0  0  0  0
  -13.0198    4.7099  -20.3514 F   0  0  0  0  0  0  0  0  0  0  0  0
  -14.3033    5.1927  -22.0311 F   0  0  0  0  0  0  0  0  0  0  0  0
  -12.6254    6.4839  -21.4969 F   0  0  0  0  0  0  0  0  0  0  0  0
   -8.0542   -3.2869  -18.5186 H   0  0  0  0  0  0  0  0  0  0  0  0
   -8.3859   -3.7533  -20.2213 H   0  0  0  0  0  0  0  0  0  0  0  0
   -5.8902    0.4623  -21.2555 H   0  0  0  0  0  0  0  0  0  0  0  0
   -4.8718   -0.2810  -19.9762 H   0  0  0  0  0  0  0  0  0  0  0  0
   -3.8747    1.8407  -19.9736 H   0  0  0  0  0  0  0  0  0  0  0  0
   -5.3561    2.6479  -20.5904 H   0  0  0  0  0  0  0  0  0  0  0  0
  -10.1175    0.8716  -24.6939 H   0  0  0  0  0  0  0  0  0  0  0  0
  -11.7274    1.4429  -24.1385 H   0  0  0  0  0  0  0  0  0  0  0  0
   -7.7098    0.8346  -19.7682 H   0  0  0  0  0  0  0  0  0  0  0  0
  -11.0431   -0.3711  -20.8870 H   0  0  0  0  0  0  0  0  0  0  0  0
  -11.2462   -1.2391  -24.9965 H   0  0  0  0  0  0  0  0  0  0  0  0
  -10.7814   -2.4381  -22.8524 H   0  0  0  0  0  0  0  0  0  0  0  0
  -14.4688   -0.1910  -22.8964 H   0  0  0  0  0  0  0  0  0  0  0  0
  -13.5315   -0.5697  -21.4117 H   0  0  0  0  0  0  0  0  0  0  0  0
  -12.9986    0.7600  -22.4955 H   0  0  0  0  0  0  0  0  0  0  0  0
  -14.3591   -2.0979  -24.0571 H   0  0  0  0  0  0  0  0  0  0  0  0
  -12.8021   -2.7651  -24.6544 H   0  0  0  0  0  0  0  0  0  0  0  0
  -13.3781   -3.1706  -23.0020 H   0  0  0  0  0  0  0  0  0  0  0  0
   -7.7530    5.3826  -24.0500 H   0  0  0  0  0  0  0  0  0  0  0  0
   -9.2062    4.6554  -24.8156 H   0  0  0  0  0  0  0  0  0  0  0  0
   -9.3867    5.7361  -23.3921 H   0  0  0  0  0  0  0  0  0  0  0  0
   -6.7642    3.1217  -23.7546 H   0  0  0  0  0  0  0  0  0  0  0  0
   -7.7120    1.8397  -22.9273 H   0  0  0  0  0  0  0  0  0  0  0  0
   -8.2123    2.4194  -24.5522 H   0  0  0  0  0  0  0  0  0  0  0  0
   -6.9700    4.6470  -21.9022 H   0  0  0  0  0  0  0  0  0  0  0  0
   -8.5780    5.0728  -21.2247 H   0  0  0  0  0  0  0  0  0  0  0  0
   -7.8939    3.4344  -20.9522 H   0  0  0  0  0  0  0  0  0  0  0  0
   -6.0657   -1.4047  -18.4556 H   0  0  0  0  0  0  0  0  0  0  0  0
   -7.7544   -1.0029  -17.9935 H   0  0  0  0  0  0  0  0  0  0  0  0
   -6.8374   -1.7758  -20.8040 H   0  0  0  0  0  0  0  0  0  0  0  0
  -10.4853    3.0190  -23.6912 H   0  0  0  0  0  0  0  0  0  0  0  0
   -6.2363   -4.1122  -20.4557 H   0  0  0  0  0  0  0  0  0  0  0  0
   -5.9348   -3.6881  -18.9078 H   0  0  0  0  0  0  0  0  0  0  0  0
   -5.0037    2.8819  -17.9876 H   0  0  0  0  0  0  0  0  0  0  0  0
   -9.6423   -1.6205  -19.7803 H   0  0  0  0  0  0  0  0  0  0  0  0
  -10.6427    4.5028  -21.1132 H   0  0  0  0  0  0  0  0  0  0  0  0
  1  9  1  0
  1 25  1  0
  1 29  2  0
  2 20  1  0
  2 24  1  0
  2 36  1  1
  2 37  1  0
  3 10  1  0
  3 27  1  0
  3 30  2  0
  4 21  1  0
  4 26  1  0
  4 31  2  0
  5 22  1  0
  5 28  1  0
  5 32  2  0
  6  7  1  0
  6  9  1  0
  6 38  1  6
  6 39  1  0
  7 25  1  0
  7 40  1  1
  7 41  1  0
  8 11  1  0
  8 26  1  0
  8 42  1  6
  8 43  1  0
  9 19  1  0
  9 44  1  6
 10 12  1  0
 10 26  1  0
 10 45  1  1
 11 12  1  0
 13 11  1  6
 11 46  1  6
 12 13  1  0
 12 47  1  6
 13 14  1  0
 13 15  1  0
 14 48  1  6
 14 49  1  0
 14 50  1  0
 15 51  1  6
 15 52  1  0
 15 53  1  0
 16 23  1  0
 16 54  1  6
 16 55  1  0
 16 56  1  0
 17 23  1  0
 17 57  1  6
 17 58  1  0
 17 59  1  0
 18 23  1  0
 18 60  1  6
 18 61  1  0
 18 62  1  0
 19 20  1  0
 19 63  1  1
 19 64  1  0
 20 27  1  0
 20 65  1  6
 23 21  1  1
 21 28  1  0
 21 66  1  6
 22 33  1  1
 22 34  1  0
 22 35  1  0
 24 67  1  0
 24 68  1  0
 25 69  1  0
 27 70  1  0
 28 71  1  0
M  END
$$$$
