LIG(A-305)
     RDKit          3D

 63 64  0  0  1  0  0  0  0  0999 V2000
    9.3853    1.1808   20.9913 O   0  0  0  0  0  0  0  0  0  0  0  0
    8.4834    1.0049   21.8004 C   0  0  0  0  0  0  0  0  0  0  0  0
    8.3996    1.7059   22.9314 N   0  0  0  0  0  0  0  0  0  0  0  0
    9.4017    2.6939   23.3162 C   0  0  1  0  0  0  0  0  0  0  0  0
   10.7677    2.0678   23.5651 C   0  0  1  0  0  0  0  0  0  0  0  0
   11.8658    3.0588   23.8669 C   0  0  1  0  0  0  0  0  0  0  0  0
   12.0067    4.0657   22.8878 O   0  0  0  0  0  0  0  0  0  0  0  0
   13.2997    4.6607   22.9206 C   0  0  1  0  0  0  0  0  0  0  0  0
    7.3663   -0.0111   21.5046 C   0  0  1  0  0  0  0  0  0  0  0  0
    6.6931    0.2649   20.1687 C   0  0  0  0  0  0  0  0  0  0  0  0
    5.5271    1.0170   20.1028 C   0  0  0  0  0  0  0  0  0  0  0  0
    5.0260    1.4139   18.8779 C   0  0  0  0  0  0  0  0  0  0  0  0
    5.7138    1.0388   17.7368 C   0  0  0  0  0  0  0  0  0  0  0  0
    6.8308    0.3048   17.7607 N   0  0  0  0  0  0  0  0  0  0  0  0
    7.2869   -0.0772   18.9596 C   0  0  0  0  0  0  0  0  0  0  0  0
    7.7352   -1.4291   21.7866 N   0  0  0  0  0  0  0  0  0  0  0  0
    6.8701   -2.4371   21.4588 C   0  0  0  0  0  0  0  0  0  0  0  0
    5.7351   -2.2080   21.0769 O   0  0  0  0  0  0  0  0  0  0  0  0
    7.3021   -3.8701   21.6708 C   0  0  1  0  0  0  0  0  0  0  0  0
    8.2979   -4.4482   20.6417 C   0  0  1  0  0  0  0  0  0  0  0  0
    8.9793   -1.6821   22.4665 C   0  0  0  0  0  0  0  0  0  0  0  0
    9.0105   -1.8161   23.8535 C   0  0  0  0  0  0  0  0  0  0  0  0
   10.2206   -1.9831   24.5093 C   0  0  0  0  0  0  0  0  0  0  0  0
   11.4235   -2.0032   23.8071 C   0  0  0  0  0  0  0  0  0  0  0  0
   12.7626   -2.0342   24.5560 C   0  0  1  0  0  0  0  0  0  0  0  0
   12.9707   -0.6902   25.2459 C   0  0  1  0  0  0  0  0  0  0  0  0
   12.7827   -3.1572   25.6060 C   0  0  1  0  0  0  0  0  0  0  0  0
   13.9544   -2.2523   23.6138 C   0  0  1  0  0  0  0  0  0  0  0  0
   11.3773   -1.8882   22.4191 C   0  0  0  0  0  0  0  0  0  0  0  0
   10.1732   -1.7332   21.7533 C   0  0  0  0  0  0  0  0  0  0  0  0
    7.6207    1.5487   23.5386 H   0  0  0  0  0  0  0  0  0  0  0  0
    9.4946    3.4358   22.5094 H   0  0  0  0  0  0  0  0  0  0  0  0
    9.0690    3.1942   24.2376 H   0  0  0  0  0  0  0  0  0  0  0  0
   10.6801    1.3813   24.4200 H   0  0  0  0  0  0  0  0  0  0  0  0
   11.0542    1.5007   22.6671 H   0  0  0  0  0  0  0  0  0  0  0  0
   11.6437    3.5402   24.8307 H   0  0  0  0  0  0  0  0  0  0  0  0
   12.8168    2.5111   23.9411 H   0  0  0  0  0  0  0  0  0  0  0  0
   13.3664    5.4372   22.1444 H   0  0  0  0  0  0  0  0  0  0  0  0
   13.4696    5.1142   23.9083 H   0  0  0  0  0  0  0  0  0  0  0  0
   14.0625    3.8902   22.7348 H   0  0  0  0  0  0  0  0  0  0  0  0
    6.5910    0.2230   22.2490 H   0  0  0  0  0  0  0  0  0  0  0  0
    5.0113    1.2920   21.0109 H   0  0  0  0  0  0  0  0  0  0  0  0
    4.1219    2.0011   18.8126 H   0  0  0  0  0  0  0  0  0  0  0  0
    5.3286    1.3552   16.7787 H   0  0  0  0  0  0  0  0  0  0  0  0
    8.1747   -0.6915   18.9894 H   0  0  0  0  0  0  0  0  0  0  0  0
    7.7720   -3.9343   22.6633 H   0  0  0  0  0  0  0  0  0  0  0  0
    6.3991   -4.4978   21.6513 H   0  0  0  0  0  0  0  0  0  0  0  0
    8.5328   -5.4905   20.9034 H   0  0  0  0  0  0  0  0  0  0  0  0
    7.8488   -4.4146   19.6381 H   0  0  0  0  0  0  0  0  0  0  0  0
    9.2217   -3.8510   20.6501 H   0  0  0  0  0  0  0  0  0  0  0  0
    8.0904   -1.7897   24.4184 H   0  0  0  0  0  0  0  0  0  0  0  0
   10.2307   -2.0997   25.5829 H   0  0  0  0  0  0  0  0  0  0  0  0
   13.9285   -0.6996   25.7868 H   0  0  0  0  0  0  0  0  0  0  0  0
   12.9835    0.1108   24.4919 H   0  0  0  0  0  0  0  0  0  0  0  0
   12.1502   -0.5119   25.9564 H   0  0  0  0  0  0  0  0  0  0  0  0
   13.7518   -3.1561   26.1263 H   0  0  0  0  0  0  0  0  0  0  0  0
   11.9754   -2.9921   26.3347 H   0  0  0  0  0  0  0  0  0  0  0  0
   12.6348   -4.1270   25.1084 H   0  0  0  0  0  0  0  0  0  0  0  0
   14.8864   -2.2665   24.1979 H   0  0  0  0  0  0  0  0  0  0  0  0
   13.8361   -3.2118   23.0891 H   0  0  0  0  0  0  0  0  0  0  0  0
   13.9950   -1.4351   22.8788 H   0  0  0  0  0  0  0  0  0  0  0  0
   12.2965   -1.9206   21.8530 H   0  0  0  0  0  0  0  0  0  0  0  0
   10.1606   -1.6517   20.6765 H   0  0  0  0  0  0  0  0  0  0  0  0
  1  2  2  0
  2  3  1  0
  2  9  1  0
  3  4  1  0
  3 31  1  0
  4  5  1  0
  4 32  1  6
  4 33  1  0
  5  6  1  0
  5 34  1  1
  5 35  1  0
  6  7  1  0
  6 36  1  1
  6 37  1  0
  7  8  1  0
  8 38  1  6
  8 39  1  0
  8 40  1  0
  9 10  1  0
  9 16  1  0
  9 41  1  1
 10 11  2  0
 10 15  1  0
 11 12  1  0
 11 42  1  0
 12 13  2  0
 12 43  1  0
 13 14  1  0
 13 44  1  0
 14 15  2  0
 15 45  1  0
 16 17  1  0
 16 21  1  0
 17 18  2  0
 17 19  1  0
 19 20  1  0
 19 46  1  1
 19 47  1  0
 20 48  1  1
 20 49  1  0
 20 50  1  0
 21 22  2  0
 21 30  1  0
 22 23  1  0
 22 51  1  0
 23 24  2  0
 23 52  1  0
 25 24  1  6
 24 29  1  0
 25 26  1  0
 25 27  1  0
 25 28  1  0
 26 53  1  1
 26 54  1  0
 26 55  1  0
 27 56  1  1
 27 57  1  0
 27 58  1  0
 28 59  1  1
 28 60  1  0
 28 61  1  0
 29 30  2  0
 29 62  1  0
 30 63  1  0
M  END
$$$$
