LIG(A-305)
     RDKit          3D

 32 33  0  0  0  0  0  0  0  0999 V2000
   14.4397   -1.9761   20.5429 N   0  0  0  0  0  0  0  0  0  0  0  0
   13.7217   -1.4481   21.2589 C   0  0  0  0  0  0  0  0  0  0  0  0
   12.8047   -0.8181   22.1720 C   0  0  0  0  0  0  0  0  0  0  0  0
   13.2818    0.0209   23.1769 C   0  0  0  0  0  0  0  0  0  0  0  0
   12.3958    0.5789   24.0830 C   0  0  0  0  0  0  0  0  0  0  0  0
   11.0398    0.3178   23.9791 C   0  0  0  0  0  0  0  0  0  0  0  0
   11.4387   -1.0762   22.0681 C   0  0  0  0  0  0  0  0  0  0  0  0
   10.5468   -0.5013   22.9702 C   0  0  0  0  0  0  0  0  0  0  0  0
    9.0608   -0.7294   22.8163 C   0  0  1  0  0  0  0  0  0  0  0  0
    8.5556    0.0505   21.6193 C   0  0  0  0  0  0  0  0  0  0  0  0
    9.1915    0.9865   21.1422 O   0  0  0  0  0  0  0  0  0  0  0  0
    7.3936   -0.3966   21.1115 N   0  0  0  0  0  0  0  0  0  0  0  0
    6.7374    0.1533   19.9935 C   0  0  0  0  0  0  0  0  0  0  0  0
    5.5284    0.8412   20.1736 C   0  0  0  0  0  0  0  0  0  0  0  0
    4.9255    1.0472   21.5406 C   0  0  1  0  0  0  0  0  0  0  0  0
    7.2613    0.0363   18.7035 C   0  0  0  0  0  0  0  0  0  0  0  0
    6.6662    0.5522   17.6215 N   0  0  0  0  0  0  0  0  0  0  0  0
    5.5092    1.1971   17.8036 C   0  0  0  0  0  0  0  0  0  0  0  0
    4.9173    1.3671   19.0396 C   0  0  0  0  0  0  0  0  0  0  0  0
   14.3379    0.2351   23.2488 H   0  0  0  0  0  0  0  0  0  0  0  0
   12.7628    1.2187   24.8719 H   0  0  0  0  0  0  0  0  0  0  0  0
   10.3565    0.7563   24.6912 H   0  0  0  0  0  0  0  0  0  0  0  0
   11.0710   -1.7239   21.2860 H   0  0  0  0  0  0  0  0  0  0  0  0
    8.8674   -1.8016   22.6645 H   0  0  0  0  0  0  0  0  0  0  0  0
    8.5407   -0.3879   23.7235 H   0  0  0  0  0  0  0  0  0  0  0  0
    6.9629   -1.1787   21.5618 H   0  0  0  0  0  0  0  0  0  0  0  0
    5.6276    1.6138   22.1700 H   0  0  0  0  0  0  0  0  0  0  0  0
    3.9840    1.6081   21.4453 H   0  0  0  0  0  0  0  0  0  0  0  0
    4.7247    0.0699   22.0038 H   0  0  0  0  0  0  0  0  0  0  0  0
    8.1918   -0.4963   18.5732 H   0  0  0  0  0  0  0  0  0  0  0  0
    5.0107    1.6070   16.9376 H   0  0  0  0  0  0  0  0  0  0  0  0
    3.9849    1.9055   19.1257 H   0  0  0  0  0  0  0  0  0  0  0  0
  1  2  3  0
  2  3  1  0
  3  4  2  0
  3  7  1  0
  4  5  1  0
  4 20  1  0
  5  6  2  0
  5 21  1  0
  6  8  1  0
  6 22  1  0
  7  8  2  0
  7 23  1  0
  8  9  1  0
  9 10  1  0
  9 24  1  6
  9 25  1  0
 10 11  2  0
 10 12  1  0
 12 13  1  0
 12 26  1  0
 13 14  2  0
 13 16  1  0
 14 15  1  0
 14 19  1  0
 15 27  1  1
 15 28  1  0
 15 29  1  0
 16 17  2  0
 16 30  1  0
 17 18  1  0
 18 19  2  0
 18 31  1  0
 19 32  1  0
M  END
$$$$
