LIG(A-305)
     RDKit          3D

 37 39  0  0  0  0  0  0  0  0999 V2000
    6.7543    0.5180   17.5921 N   0  0  0  0  0  0  0  0  0  0  0  0
    5.6334    0.6720   20.1651 C   0  0  0  0  0  0  0  0  0  0  0  0
   10.5454   -0.4819   22.9570 C   0  0  0  0  0  0  0  0  0  0  0  0
    6.7175   -2.5300   24.5351 O   0  0  0  0  0  0  0  0  0  0  0  0
    8.2005   -0.5380   24.1751 C   0  0  1  0  0  0  0  0  0  0  0  0
    5.0353    1.2910   19.0742 C   0  0  0  0  0  0  0  0  0  0  0  0
   11.4464   -1.1859   22.1650 C   0  0  0  0  0  0  0  0  0  0  0  0
    8.5694   -0.1250   21.5641 C   0  0  0  0  0  0  0  0  0  0  0  0
    6.8134   -0.0600   19.9231 C   0  0  0  0  0  0  0  0  0  0  0  0
    7.3253   -0.1080   18.6271 C   0  0  0  0  0  0  0  0  0  0  0  0
   12.3724    0.8451   23.8160 C   0  0  0  0  0  0  0  0  0  0  0  0
    8.6805   -2.3230   22.9861 C   0  0  1  0  0  0  0  0  0  0  0  0
    7.6435   -1.9410   24.0261 C   0  0  0  0  0  0  0  0  0  0  0  0
   11.0204    0.5301   23.7870 C   0  0  0  0  0  0  0  0  0  0  0  0
   13.2694    0.1451   23.0220 C   0  0  0  0  0  0  0  0  0  0  0  0
    5.0754    0.8530   21.5552 C   0  0  1  0  0  0  0  0  0  0  0  0
    7.4774   -0.6760   21.0041 N   0  0  0  0  0  0  0  0  0  0  0  0
    9.1364    0.8610   21.1061 O   0  0  0  0  0  0  0  0  0  0  0  0
    9.0534   -0.7880   22.8661 C   0  0  1  0  0  0  0  0  0  0  0  0
    5.6253    1.1970   17.8271 C   0  0  0  0  0  0  0  0  0  0  0  0
   12.7884   -0.8679   22.2130 C   0  0  0  0  0  0  0  0  0  0  0  0
   13.9034   -1.7979   21.2560 Cl  0  0  0  0  0  0  0  0  0  0  0  0
    7.4508    0.2619   24.0846 H   0  0  0  0  0  0  0  0  0  0  0  0
    8.7980   -0.3792   25.0849 H   0  0  0  0  0  0  0  0  0  0  0  0
    4.1151    1.8422   19.1995 H   0  0  0  0  0  0  0  0  0  0  0  0
   11.0980   -1.9763   21.5167 H   0  0  0  0  0  0  0  0  0  0  0  0
    8.2257   -0.6777   18.4505 H   0  0  0  0  0  0  0  0  0  0  0  0
   12.7269    1.6374   24.4586 H   0  0  0  0  0  0  0  0  0  0  0  0
    9.4924   -2.9613   23.3647 H   0  0  0  0  0  0  0  0  0  0  0  0
    8.2648   -2.7644   22.0683 H   0  0  0  0  0  0  0  0  0  0  0  0
   10.3307    1.0753   24.4142 H   0  0  0  0  0  0  0  0  0  0  0  0
   14.3220    0.3865   23.0354 H   0  0  0  0  0  0  0  0  0  0  0  0
    4.1927    1.5082   21.5141 H   0  0  0  0  0  0  0  0  0  0  0  0
    4.7863   -0.1262   21.9644 H   0  0  0  0  0  0  0  0  0  0  0  0
    5.8405    1.3088   22.2008 H   0  0  0  0  0  0  0  0  0  0  0  0
    7.1286   -1.5420   21.3624 H   0  0  0  0  0  0  0  0  0  0  0  0
    5.1491    1.6987   16.9977 H   0  0  0  0  0  0  0  0  0  0  0  0
  1 10  1  0
  1 20  2  0
  2  6  2  0
  2  9  1  0
  2 16  1  0
  3  7  2  0
  3 14  1  0
  3 19  1  0
  4 13  2  0
  5 13  1  0
  5 19  1  0
  5 23  1  6
  5 24  1  0
  6 20  1  0
  6 25  1  0
  7 21  1  0
  7 26  1  0
  8 17  1  0
  8 18  2  0
 19  8  1  6
  9 10  2  0
  9 17  1  0
 10 27  1  0
 11 14  2  0
 11 15  1  0
 11 28  1  0
 12 13  1  0
 12 19  1  0
 12 29  1  1
 12 30  1  0
 14 31  1  0
 15 21  2  0
 15 32  1  0
 16 33  1  6
 16 34  1  0
 16 35  1  0
 17 36  1  0
 20 37  1  0
 21 22  1  0
M  END
$$$$
