LIG(A-305)
     RDKit          3D

 44 46  0  0  0  0  0  0  0  0999 V2000
    3.6411   -2.5715   26.1595 S   0  0  0  0  0  0  0  0  0  0  0  0
    7.1519   -3.7186   21.3374 N   0  0  0  0  0  0  0  0  0  0  0  0
    5.1452   -3.9144   27.7575 N   0  0  0  0  0  0  0  0  0  0  0  0
    3.6204   -3.7953   32.0965 C   0  0  0  0  0  0  0  0  0  0  0  0
    6.7538   -3.7106   20.0394 C   0  0  0  0  0  0  0  0  0  0  0  0
    2.7712   -4.0415   28.4036 C   0  0  1  0  0  0  0  0  0  0  0  0
    8.1649   -2.8655   21.9683 C   0  0  1  0  0  0  0  0  0  0  0  0
    6.4210   -4.5026   22.3354 C   0  0  1  0  0  0  0  0  0  0  0  0
    5.9561   -3.2764   26.8644 C   0  0  0  0  0  0  0  0  0  0  0  0
    5.3611   -2.5065   25.9304 C   0  0  0  0  0  0  0  0  0  0  0  0
    6.0140   -1.7215   24.8363 C   0  0  1  0  0  0  0  0  0  0  0  0
    2.8373   -1.6684   31.3685 C   0  0  0  0  0  0  0  0  0  0  0  0
    3.4123   -4.3084   30.8276 C   0  0  0  0  0  0  0  0  0  0  0  0
    2.9223   -3.5044   29.8085 C   0  0  0  0  0  0  0  0  0  0  0  0
    3.3324   -2.4763   32.3665 C   0  0  0  0  0  0  0  0  0  0  0  0
    2.6313   -2.1784   30.0965 C   0  0  0  0  0  0  0  0  0  0  0  0
    7.2708   -2.6316   19.1413 C   0  0  1  0  0  0  0  0  0  0  0  0
    6.6990   -2.6515   23.9443 N   0  0  2  0  0  0  0  0  0  0  0  0
    5.9468   -4.5237   19.6304 O   0  0  0  0  0  0  0  0  0  0  0  0
    3.9072   -3.6215   27.5195 C   0  0  0  0  0  0  0  0  0  0  0  0
    7.4889   -1.9105   22.9393 C   0  0  1  0  0  0  0  0  0  0  0  0
    5.7240   -3.5565   23.2924 C   0  0  1  0  0  0  0  0  0  0  0  0
    4.0099   -4.4319   32.8772 H   0  0  0  0  0  0  0  0  0  0  0  0
    2.7398   -5.1403   28.4443 H   0  0  0  0  0  0  0  0  0  0  0  0
    1.8303   -3.6632   27.9775 H   0  0  0  0  0  0  0  0  0  0  0  0
    8.8854   -3.4933   22.5130 H   0  0  0  0  0  0  0  0  0  0  0  0
    8.6926   -2.2889   21.1942 H   0  0  0  0  0  0  0  0  0  0  0  0
    5.6743   -5.1350   21.8329 H   0  0  0  0  0  0  0  0  0  0  0  0
    7.1248   -5.1383   22.8926 H   0  0  0  0  0  0  0  0  0  0  0  0
    7.0300   -3.3836   26.9039 H   0  0  0  0  0  0  0  0  0  0  0  0
    5.2512   -1.1624   24.2747 H   0  0  0  0  0  0  0  0  0  0  0  0
    6.7409   -1.0176   25.2677 H   0  0  0  0  0  0  0  0  0  0  0  0
    2.6087   -0.6336   31.5772 H   0  0  0  0  0  0  0  0  0  0  0  0
    3.6342   -5.3465   30.6286 H   0  0  0  0  0  0  0  0  0  0  0  0
    3.4942   -2.0775   33.3571 H   0  0  0  0  0  0  0  0  0  0  0  0
    2.2399   -1.5369   29.3208 H   0  0  0  0  0  0  0  0  0  0  0  0
    6.8103   -2.7294   18.1471 H   0  0  0  0  0  0  0  0  0  0  0  0
    7.0193   -1.6489   19.5667 H   0  0  0  0  0  0  0  0  0  0  0  0
    8.3632   -2.7229   19.0499 H   0  0  0  0  0  0  0  0  0  0  0  0
    7.3270   -3.2083   24.4880 H   0  0  0  0  0  0  0  0  0  0  0  0
    8.2581   -1.3154   23.4532 H   0  0  0  0  0  0  0  0  0  0  0  0
    6.8206   -1.2403   22.3787 H   0  0  0  0  0  0  0  0  0  0  0  0
    4.9912   -2.9550   22.7345 H   0  0  0  0  0  0  0  0  0  0  0  0
    5.2048   -4.1431   24.0647 H   0  0  0  0  0  0  0  0  0  0  0  0
  1 10  1  0
  1 20  1  0
  2  5  1  0
  2  7  1  0
  2  8  1  0
  3  9  1  0
  3 20  2  0
  4 13  2  0
  4 15  1  0
  4 23  1  0
  5 17  1  0
  5 19  2  0
  6 14  1  0
  6 20  1  0
  6 24  1  1
  6 25  1  0
  7 21  1  0
  7 26  1  1
  7 27  1  0
  8 22  1  0
  8 28  1  6
  8 29  1  0
  9 10  2  0
  9 30  1  0
 10 11  1  0
 11 18  1  0
 11 31  1  6
 11 32  1  0
 12 15  2  0
 12 16  1  0
 12 33  1  0
 13 14  1  0
 13 34  1  0
 14 16  2  0
 15 35  1  0
 16 36  1  0
 17 37  1  6
 17 38  1  0
 17 39  1  0
 18 21  1  0
 18 22  1  0
 18 40  1  1
 21 41  1  1
 21 42  1  0
 22 43  1  6
 22 44  1  0
M  CHG  1  18   1
M  END
$$$$
