LIG(A-306)
     RDKit          3D

 39 42  0  0  1  0  0  0  0  0999 V2000
   -9.6418    0.5361  -20.9875 O   0  0  0  0  0  0  0  0  0  0  0  0
   -9.0909   -0.5151  -21.3328 C   0  0  0  0  0  0  0  0  0  0  0  0
   -9.6815   -1.4299  -22.4062 C   0  0  2  0  0  0  0  0  0  0  0  0
   -8.9704   -1.1161  -23.7310 C   0  0  1  0  0  0  0  0  0  0  0  0
   -9.3800    0.1880  -24.3530 C   0  0  0  0  0  0  0  0  0  0  0  0
   -8.5840    0.8981  -24.9556 O   0  0  0  0  0  0  0  0  0  0  0  0
  -10.6749    0.5408  -24.2122 N   0  0  0  0  0  0  0  0  0  0  0  0
  -11.1642   -1.1995  -22.6055 C   0  0  0  0  0  0  0  0  0  0  0  0
  -11.6017   -0.1536  -23.4324 C   0  0  0  0  0  0  0  0  0  0  0  0
  -12.9621    0.1411  -23.5277 C   0  0  0  0  0  0  0  0  0  0  0  0
  -13.8830   -0.5961  -22.8020 C   0  0  0  0  0  0  0  0  0  0  0  0
  -12.1031   -1.9407  -21.8949 C   0  0  0  0  0  0  0  0  0  0  0  0
  -13.4395   -1.6170  -21.9881 C   0  0  0  0  0  0  0  0  0  0  0  0
  -14.5813   -2.4656  -20.9846 Cl  0  0  0  0  0  0  0  0  0  0  0  0
   -7.9313   -0.9538  -20.8017 N   0  0  0  0  0  0  0  0  0  0  0  0
   -7.2025   -0.3541  -19.7666 C   0  0  0  0  0  0  0  0  0  0  0  0
   -6.1537    0.5494  -20.1088 C   0  0  0  0  0  0  0  0  0  0  0  0
   -5.7288    0.7980  -21.4405 C   0  0  0  0  0  0  0  0  0  0  0  0
   -4.6850    1.6413  -21.6979 C   0  0  0  0  0  0  0  0  0  0  0  0
   -4.0131    2.2750  -20.6606 C   0  0  0  0  0  0  0  0  0  0  0  0
   -4.3969    2.0795  -19.3628 C   0  0  0  0  0  0  0  0  0  0  0  0
   -5.4767    1.2171  -19.0524 C   0  0  0  0  0  0  0  0  0  0  0  0
   -5.8967    0.9456  -17.7268 C   0  0  0  0  0  0  0  0  0  0  0  0
   -6.8694    0.1020  -17.4114 N   0  0  0  0  0  0  0  0  0  0  0  0
   -7.4962   -0.5270  -18.4158 C   0  0  0  0  0  0  0  0  0  0  0  0
   -9.5019   -2.4804  -22.1339 H   0  0  0  0  0  0  0  0  0  0  0  0
   -7.8872   -1.0838  -23.5424 H   0  0  0  0  0  0  0  0  0  0  0  0
   -9.1946   -1.9239  -24.4431 H   0  0  0  0  0  0  0  0  0  0  0  0
  -10.9921    1.3545  -24.6993 H   0  0  0  0  0  0  0  0  0  0  0  0
  -13.2970    0.9442  -24.1674 H   0  0  0  0  0  0  0  0  0  0  0  0
  -14.9374   -0.3737  -22.8729 H   0  0  0  0  0  0  0  0  0  0  0  0
  -11.7864   -2.7652  -21.2735 H   0  0  0  0  0  0  0  0  0  0  0  0
   -7.5522   -1.7950  -21.1872 H   0  0  0  0  0  0  0  0  0  0  0  0
   -6.2374    0.3139  -22.2611 H   0  0  0  0  0  0  0  0  0  0  0  0
   -4.3791    1.8169  -22.7187 H   0  0  0  0  0  0  0  0  0  0  0  0
   -3.1810    2.9273  -20.8807 H   0  0  0  0  0  0  0  0  0  0  0  0
   -3.8720    2.5874  -18.5672 H   0  0  0  0  0  0  0  0  0  0  0  0
   -5.3921    1.4589  -16.9216 H   0  0  0  0  0  0  0  0  0  0  0  0
   -8.2859   -1.2177  -18.1592 H   0  0  0  0  0  0  0  0  0  0  0  0
  1  2  2  0
  2  3  1  0
  2 15  1  0
  3  4  1  0
  3  8  1  0
  3 26  1  1
  4  5  1  0
  4 27  1  1
  4 28  1  0
  5  6  2  0
  5  7  1  0
  7  9  1  0
  7 29  1  0
  8  9  1  0
  8 12  2  0
  9 10  2  0
 10 11  1  0
 10 30  1  0
 11 13  2  0
 11 31  1  0
 12 13  1  0
 12 32  1  0
 13 14  1  0
 15 16  1  0
 15 33  1  0
 16 17  2  0
 16 25  1  0
 17 18  1  0
 17 22  1  0
 18 19  2  0
 18 34  1  0
 19 20  1  0
 19 35  1  0
 20 21  2  0
 20 36  1  0
 21 22  1  0
 21 37  1  0
 22 23  2  0
 23 24  1  0
 23 38  1  0
 24 25  2  0
 25 39  1  0
M  END
$$$$
