LIG(A-306)
     RDKit          3D

 39 42  0  0  1  0  0  0  0  0999 V2000
  -14.6034   -2.2992  -20.9591 Cl  0  0  0  0  0  0  0  0  0  0  0  0
  -13.5986   -1.3936  -22.0576 C   0  0  0  0  0  0  0  0  0  0  0  0
  -14.1784   -0.4538  -22.8826 C   0  0  0  0  0  0  0  0  0  0  0  0
  -13.3710    0.3336  -23.6840 C   0  0  0  0  0  0  0  0  0  0  0  0
  -12.2326   -1.5867  -22.0246 C   0  0  0  0  0  0  0  0  0  0  0  0
  -11.4021   -0.7951  -22.8166 C   0  0  0  0  0  0  0  0  0  0  0  0
  -11.9968    0.1599  -23.6506 C   0  0  0  0  0  0  0  0  0  0  0  0
  -11.2841    0.9409  -24.5307 O   0  0  0  0  0  0  0  0  0  0  0  0
   -9.8484    0.9524  -24.3755 C   0  0  1  0  0  0  0  0  0  0  0  0
   -9.2978   -0.4208  -24.0850 C   0  0  1  0  0  0  0  0  0  0  0  0
   -9.8933   -0.9481  -22.7707 C   0  0  1  0  0  0  0  0  0  0  0  0
   -9.3556   -0.1860  -21.5564 C   0  0  0  0  0  0  0  0  0  0  0  0
  -10.0619    0.5664  -20.8939 O   0  0  0  0  0  0  0  0  0  0  0  0
   -8.0263   -0.3299  -21.3415 N   0  0  0  0  0  0  0  0  0  0  0  0
   -7.2725   -0.1384  -20.1682 C   0  0  0  0  0  0  0  0  0  0  0  0
   -7.7571   -0.2680  -18.8648 C   0  0  0  0  0  0  0  0  0  0  0  0
   -7.1547    0.1892  -17.7606 N   0  0  0  0  0  0  0  0  0  0  0  0
   -6.0163    0.8430  -17.9144 C   0  0  0  0  0  0  0  0  0  0  0  0
   -6.0220    0.5369  -20.3259 C   0  0  0  0  0  0  0  0  0  0  0  0
   -5.4247    0.7739  -21.5911 C   0  0  0  0  0  0  0  0  0  0  0  0
   -4.2971    1.5242  -21.6537 C   0  0  0  0  0  0  0  0  0  0  0  0
   -3.6890    1.6747  -22.8623 F   0  0  0  0  0  0  0  0  0  0  0  0
   -5.3984    1.0731  -19.1649 C   0  0  0  0  0  0  0  0  0  0  0  0
   -4.2344    1.8632  -19.3171 C   0  0  0  0  0  0  0  0  0  0  0  0
   -3.7021    2.0901  -20.5516 C   0  0  0  0  0  0  0  0  0  0  0  0
  -15.2515   -0.3335  -22.9032 H   0  0  0  0  0  0  0  0  0  0  0  0
  -13.8091    1.0788  -24.3313 H   0  0  0  0  0  0  0  0  0  0  0  0
  -11.8083   -2.3485  -21.3874 H   0  0  0  0  0  0  0  0  0  0  0  0
   -9.3942    1.3272  -25.3047 H   0  0  0  0  0  0  0  0  0  0  0  0
   -9.5869    1.6225  -23.5434 H   0  0  0  0  0  0  0  0  0  0  0  0
   -9.5629   -1.1028  -24.9064 H   0  0  0  0  0  0  0  0  0  0  0  0
   -8.2030   -0.3645  -23.9942 H   0  0  0  0  0  0  0  0  0  0  0  0
   -9.6407   -2.0135  -22.6659 H   0  0  0  0  0  0  0  0  0  0  0  0
   -7.4980   -0.6167  -22.1407 H   0  0  0  0  0  0  0  0  0  0  0  0
   -8.6987   -0.7811  -18.7369 H   0  0  0  0  0  0  0  0  0  0  0  0
   -5.5281    1.2250  -17.0300 H   0  0  0  0  0  0  0  0  0  0  0  0
   -5.8612    0.3634  -22.4897 H   0  0  0  0  0  0  0  0  0  0  0  0
   -3.7622    2.2913  -18.4453 H   0  0  0  0  0  0  0  0  0  0  0  0
   -2.8229    2.7076  -20.6622 H   0  0  0  0  0  0  0  0  0  0  0  0
  1  2  1  0
  2  3  2  0
  2  5  1  0
  3  4  1  0
  3 26  1  0
  4  7  2  0
  4 27  1  0
  5  6  2  0
  5 28  1  0
  6  7  1  0
  6 11  1  0
  7  8  1  0
  8  9  1  0
  9 10  1  0
  9 29  1  6
  9 30  1  0
 10 11  1  0
 10 31  1  6
 10 32  1  0
 11 12  1  0
 11 33  1  1
 12 13  2  0
 12 14  1  0
 14 15  1  0
 14 34  1  0
 15 16  2  0
 15 19  1  0
 16 17  1  0
 16 35  1  0
 17 18  2  0
 18 23  1  0
 18 36  1  0
 19 20  2  0
 19 23  1  0
 20 21  1  0
 20 37  1  0
 21 22  1  0
 21 25  2  0
 23 24  2  0
 24 25  1  0
 24 38  1  0
 25 39  1  0
M  END
$$$$
