LIG(A-305)
     RDKit          3D

 46 48  0  0  1  0  0  0  0  0999 V2000
    7.5177   -1.5121   21.5243 N   0  0  0  0  0  0  0  0  0  0  0  0
   11.4329    0.5608   23.1470 C   0  0  0  0  0  0  0  0  0  0  0  0
    5.9247   -0.4741   20.0713 C   0  0  0  0  0  0  0  0  0  0  0  0
    4.2948    0.3000   21.8074 C   0  0  0  0  0  0  0  0  0  0  0  0
    9.9017   -1.0602   22.2982 O   0  0  0  0  0  0  0  0  0  0  0  0
   10.1227   -3.1872   23.5152 C   0  0  1  0  0  0  0  0  0  0  0  0
    6.6406    1.0657   16.9302 O   0  0  0  0  0  0  0  0  0  0  0  0
   12.7169    1.0887   23.2049 C   0  0  0  0  0  0  0  0  0  0  0  0
   11.2098   -0.6702   22.4871 C   0  0  0  0  0  0  0  0  0  0  0  0
    2.7238    2.0501   21.2564 C   0  0  0  0  0  0  0  0  0  0  0  0
   12.2757   -1.3373   21.8981 C   0  0  0  0  0  0  0  0  0  0  0  0
   13.5417   -0.7734   21.9280 C   0  0  0  0  0  0  0  0  0  0  0  0
    6.0486    0.7638   17.9653 C   0  0  0  0  0  0  0  0  0  0  0  0
    6.3567   -1.6391   20.8843 C   0  0  0  0  0  0  0  0  0  0  0  0
    3.2328    1.1111   22.1144 C   0  0  0  0  0  0  0  0  0  0  0  0
    2.6139    0.9222   23.3104 F   0  0  0  0  0  0  0  0  0  0  0  0
    7.9607   -2.4771   22.5243 C   0  0  1  0  0  0  0  0  0  0  0  0
    6.4736   -0.2752   18.8423 C   0  0  0  0  0  0  0  0  0  0  0  0
    4.8597    0.4029   20.5373 C   0  0  0  0  0  0  0  0  0  0  0  0
    4.3827    1.3799   19.6453 C   0  0  0  0  0  0  0  0  0  0  0  0
   10.4400    2.5409   24.0640 C   0  0  1  0  0  0  0  0  0  0  0  0
    4.9917    1.5209   18.4003 N   0  0  0  0  0  0  0  0  0  0  0  0
   10.3089    1.1978   23.6010 O   0  0  0  0  0  0  0  0  0  0  0  0
    5.6486   -2.6361   20.9934 O   0  0  0  0  0  0  0  0  0  0  0  0
    9.2617   -1.9851   23.2242 C   0  0  2  0  0  0  0  0  0  0  0  0
   13.7598    0.4266   22.5769 C   0  0  0  0  0  0  0  0  0  0  0  0
    3.3138    2.1930   20.0123 C   0  0  0  0  0  0  0  0  0  0  0  0
    8.1043   -0.7305   21.3125 H   0  0  0  0  0  0  0  0  0  0  0  0
    4.6837   -0.4009   22.5313 H   0  0  0  0  0  0  0  0  0  0  0  0
   11.0497   -2.8635   24.0110 H   0  0  0  0  0  0  0  0  0  0  0  0
    9.5767   -3.8782   24.1743 H   0  0  0  0  0  0  0  0  0  0  0  0
   10.3700   -3.6977   22.5728 H   0  0  0  0  0  0  0  0  0  0  0  0
   12.9011    2.0104   23.7368 H   0  0  0  0  0  0  0  0  0  0  0  0
    1.8829    2.6638   21.5436 H   0  0  0  0  0  0  0  0  0  0  0  0
   12.1191   -2.2921   21.4183 H   0  0  0  0  0  0  0  0  0  0  0  0
   14.3639   -1.2759   21.4403 H   0  0  0  0  0  0  0  0  0  0  0  0
    7.1704   -2.6039   23.2788 H   0  0  0  0  0  0  0  0  0  0  0  0
    8.1572   -3.4416   22.0333 H   0  0  0  0  0  0  0  0  0  0  0  0
    7.2659   -0.9335   18.5177 H   0  0  0  0  0  0  0  0  0  0  0  0
    9.4587    2.9131   24.3934 H   0  0  0  0  0  0  0  0  0  0  0  0
   11.1453    2.5706   24.9076 H   0  0  0  0  0  0  0  0  0  0  0  0
   10.8174    3.1747   23.2479 H   0  0  0  0  0  0  0  0  0  0  0  0
    4.6340    2.2212   17.7832 H   0  0  0  0  0  0  0  0  0  0  0  0
    8.9990   -1.4753   24.1629 H   0  0  0  0  0  0  0  0  0  0  0  0
   14.7521    0.8526   22.5950 H   0  0  0  0  0  0  0  0  0  0  0  0
    2.9435    2.9381   19.3237 H   0  0  0  0  0  0  0  0  0  0  0  0
  1 14  1  0
  1 17  1  0
  1 28  1  0
  2  8  2  0
  2  9  1  0
  2 23  1  0
  3 14  1  0
  3 18  2  0
  3 19  1  0
  4 15  1  0
  4 19  2  0
  4 29  1  0
  5  9  1  0
  5 25  1  0
  6 25  1  0
  6 30  1  1
  6 31  1  0
  6 32  1  0
  7 13  2  0
  8 26  1  0
  8 33  1  0
  9 11  2  0
 10 15  2  0
 10 27  1  0
 10 34  1  0
 11 12  1  0
 11 35  1  0
 12 26  2  0
 12 36  1  0
 13 18  1  0
 13 22  1  0
 14 24  2  0
 15 16  1  0
 17 25  1  0
 17 37  1  1
 17 38  1  0
 18 39  1  0
 19 20  1  0
 20 22  1  0
 20 27  2  0
 21 23  1  0
 21 40  1  1
 21 41  1  0
 21 42  1  0
 22 43  1  0
 25 44  1  1
 26 45  1  0
 27 46  1  0
M  END
$$$$
