LIG(A-306)
     RDKit          3D

 42 44  0  0  0  0  0  0  0  0999 V2000
   14.1043   -1.5056   21.5817 Cl  0  0  0  0  0  0  0  0  0  0  0  0
   12.8212   -0.7849   22.5168 C   0  0  0  0  0  0  0  0  0  0  0  0
   13.1241    0.2091   23.4249 C   0  0  0  0  0  0  0  0  0  0  0  0
   12.0981    0.7499   24.1830 C   0  0  0  0  0  0  0  0  0  0  0  0
   10.7911    0.3247   23.9950 C   0  0  0  0  0  0  0  0  0  0  0  0
   11.5273   -1.2321   22.3309 C   0  0  0  0  0  0  0  0  0  0  0  0
   10.4892   -0.6533   23.0550 C   0  0  0  0  0  0  0  0  0  0  0  0
    9.0533   -1.0005   22.7310 C   0  0  1  0  0  0  0  0  0  0  0  0
    8.5051   -0.1604   21.5931 C   0  0  0  0  0  0  0  0  0  0  0  0
    9.0639    0.8737   21.2201 O   0  0  0  0  0  0  0  0  0  0  0  0
    7.3681   -0.6356   21.0371 N   0  0  0  0  0  0  0  0  0  0  0  0
    6.6450   -0.0906   19.9552 C   0  0  0  0  0  0  0  0  0  0  0  0
    7.0510   -0.1934   18.6251 C   0  0  0  0  0  0  0  0  0  0  0  0
    6.4229    0.3746   17.5842 N   0  0  0  0  0  0  0  0  0  0  0  0
    5.3398    1.0944   17.8423 C   0  0  0  0  0  0  0  0  0  0  0  0
    5.4689    0.6782   20.2323 C   0  0  0  0  0  0  0  0  0  0  0  0
    4.8068    1.2972   19.1384 C   0  0  0  0  0  0  0  0  0  0  0  0
    3.6637    2.0910   19.3895 C   0  0  0  0  0  0  0  0  0  0  0  0
    3.1857    2.2589   20.6545 C   0  0  0  0  0  0  0  0  0  0  0  0
    4.9470    0.8710   21.5353 C   0  0  0  0  0  0  0  0  0  0  0  0
    3.8039    1.6499   21.7624 C   0  0  0  0  0  0  0  0  0  0  0  0
    3.2749    1.7897   23.0355 N   0  0  0  0  0  0  0  0  0  0  0  0
    3.7870    1.0137   24.1584 C   0  0  1  0  0  0  0  0  0  0  0  0
    2.4067    2.9115   23.3726 C   0  0  1  0  0  0  0  0  0  0  0  0
   14.1394    0.5581   23.5422 H   0  0  0  0  0  0  0  0  0  0  0  0
   12.3167    1.5053   24.9231 H   0  0  0  0  0  0  0  0  0  0  0  0
    9.9986    0.7589   24.5864 H   0  0  0  0  0  0  0  0  0  0  0  0
   11.3226   -2.0259   21.6278 H   0  0  0  0  0  0  0  0  0  0  0  0
    9.0007   -2.0615   22.4456 H   0  0  0  0  0  0  0  0  0  0  0  0
    8.4368   -0.8305   23.6260 H   0  0  0  0  0  0  0  0  0  0  0  0
    6.9959   -1.4717   21.4401 H   0  0  0  0  0  0  0  0  0  0  0  0
    7.9377   -0.7739   18.4172 H   0  0  0  0  0  0  0  0  0  0  0  0
    4.8307    1.5564   17.0094 H   0  0  0  0  0  0  0  0  0  0  0  0
    3.1607    2.5727   18.5640 H   0  0  0  0  0  0  0  0  0  0  0  0
    2.3117    2.8738   20.8106 H   0  0  0  0  0  0  0  0  0  0  0  0
    5.4424    0.4062   22.3749 H   0  0  0  0  0  0  0  0  0  0  0  0
    3.2311    1.2765   25.0703 H   0  0  0  0  0  0  0  0  0  0  0  0
    3.6626   -0.0591   23.9496 H   0  0  0  0  0  0  0  0  0  0  0  0
    4.8543    1.2378   24.3023 H   0  0  0  0  0  0  0  0  0  0  0  0
    2.0988    2.8340   24.4258 H   0  0  0  0  0  0  0  0  0  0  0  0
    2.9506    3.8551   23.2182 H   0  0  0  0  0  0  0  0  0  0  0  0
    1.5157    2.8922   22.7278 H   0  0  0  0  0  0  0  0  0  0  0  0
  1  2  1  0
  2  3  2  0
  2  6  1  0
  3  4  1  0
  3 25  1  0
  4  5  2  0
  4 26  1  0
  5  7  1  0
  5 27  1  0
  6  7  2  0
  6 28  1  0
  7  8  1  0
  8  9  1  0
  8 29  1  6
  8 30  1  0
  9 10  2  0
  9 11  1  0
 11 12  1  0
 11 31  1  0
 12 13  2  0
 12 16  1  0
 13 14  1  0
 13 32  1  0
 14 15  2  0
 15 17  1  0
 15 33  1  0
 16 17  2  0
 16 20  1  0
 17 18  1  0
 18 19  2  0
 18 34  1  0
 19 21  1  0
 19 35  1  0
 20 21  2  0
 20 36  1  0
 21 22  1  0
 22 23  1  0
 22 24  1  0
 23 37  1  1
 23 38  1  0
 23 39  1  0
 24 40  1  1
 24 41  1  0
 24 42  1  0
M  END
$$$$
