LIG(A-305)
     RDKit          3D

 43 46  0  0  1  0  0  0  0  0999 V2000
    9.1668    1.4813   21.1055 O   0  0  0  0  0  0  0  0  0  0  0  0
    8.9160    0.3193   21.4006 C   0  0  0  0  0  0  0  0  0  0  0  0
    9.4882   -0.3656   22.6755 C   0  0  1  0  0  0  0  0  0  0  0  0
   10.9902   -0.1985   22.7392 C   0  0  0  0  0  0  0  0  0  0  0  0
   11.8191   -0.7785   21.7831 C   0  0  0  0  0  0  0  0  0  0  0  0
   13.1871   -0.6194   21.8878 C   0  0  0  0  0  0  0  0  0  0  0  0
   14.2230   -1.5304   20.8256 Cl  0  0  0  0  0  0  0  0  0  0  0  0
   13.7552    0.1657   22.8667 C   0  0  0  0  0  0  0  0  0  0  0  0
   12.9414    0.7696   23.8068 C   0  0  0  0  0  0  0  0  0  0  0  0
   11.5744    0.5646   23.7521 C   0  0  0  0  0  0  0  0  0  0  0  0
   10.8465    1.1306   24.7692 O   0  0  0  0  0  0  0  0  0  0  0  0
    9.4914    1.4505   24.4194 C   0  0  1  0  0  0  0  0  0  0  0  0
    8.7614    0.2354   23.8896 C   0  0  2  0  0  0  0  0  0  0  0  0
    8.9933   -1.7126   22.5976 O   0  0  0  0  0  0  0  0  0  0  0  0
    9.7805   -2.7416   23.2025 C   0  0  1  0  0  0  0  0  0  0  0  0
    8.0909   -0.4507   20.6647 N   0  0  0  0  0  0  0  0  0  0  0  0
    7.1837   -0.0118   19.6849 C   0  0  0  0  0  0  0  0  0  0  0  0
    5.9527    0.5691   20.1231 C   0  0  0  0  0  0  0  0  0  0  0  0
    5.5700    0.6751   21.4861 C   0  0  0  0  0  0  0  0  0  0  0  0
    4.4070    1.2971   21.8433 C   0  0  0  0  0  0  0  0  0  0  0  0
    3.5708    1.8400   20.8785 C   0  0  0  0  0  0  0  0  0  0  0  0
    3.8915    1.7610   19.5544 C   0  0  0  0  0  0  0  0  0  0  0  0
    5.0855    1.1190   19.1392 C   0  0  0  0  0  0  0  0  0  0  0  0
    5.4913    1.0350   17.7881 C   0  0  0  0  0  0  0  0  0  0  0  0
    6.6292    0.4821   17.3840 N   0  0  0  0  0  0  0  0  0  0  0  0
    7.4424   -0.0258   18.3188 C   0  0  0  0  0  0  0  0  0  0  0  0
   11.3969   -1.3470   20.9677 H   0  0  0  0  0  0  0  0  0  0  0  0
   14.8253    0.3078   22.8994 H   0  0  0  0  0  0  0  0  0  0  0  0
   13.3686    1.3954   24.5764 H   0  0  0  0  0  0  0  0  0  0  0  0
    8.9684    1.8219   25.3130 H   0  0  0  0  0  0  0  0  0  0  0  0
    9.4957    2.2322   23.6456 H   0  0  0  0  0  0  0  0  0  0  0  0
    8.7034   -0.5229   24.6843 H   0  0  0  0  0  0  0  0  0  0  0  0
    7.7451    0.5303   23.5893 H   0  0  0  0  0  0  0  0  0  0  0  0
    9.2826   -3.7129   23.0660 H   0  0  0  0  0  0  0  0  0  0  0  0
   10.7735   -2.7690   22.7300 H   0  0  0  0  0  0  0  0  0  0  0  0
    9.8914   -2.5343   24.2771 H   0  0  0  0  0  0  0  0  0  0  0  0
    8.1277   -1.4358   20.8329 H   0  0  0  0  0  0  0  0  0  0  0  0
    6.2073    0.2581   22.2518 H   0  0  0  0  0  0  0  0  0  0  0  0
    4.1362    1.3667   22.8865 H   0  0  0  0  0  0  0  0  0  0  0  0
    2.6564    2.3303   21.1784 H   0  0  0  0  0  0  0  0  0  0  0  0
    3.2304    2.1910   18.8166 H   0  0  0  0  0  0  0  0  0  0  0  0
    4.8342    1.4467   17.0364 H   0  0  0  0  0  0  0  0  0  0  0  0
    8.3654   -0.4788   17.9881 H   0  0  0  0  0  0  0  0  0  0  0  0
  1  2  2  0
  2  3  1  0
  2 16  1  0
  3  4  1  0
  3 13  1  0
  3 14  1  6
  4  5  2  0
  4 10  1  0
  5  6  1  0
  5 27  1  0
  6  7  1  0
  6  8  2  0
  8  9  1  0
  8 28  1  0
  9 10  2  0
  9 29  1  0
 10 11  1  0
 11 12  1  0
 12 13  1  0
 12 30  1  1
 12 31  1  0
 13 32  1  1
 13 33  1  0
 14 15  1  0
 15 34  1  1
 15 35  1  0
 15 36  1  0
 16 17  1  0
 16 37  1  0
 17 18  2  0
 17 26  1  0
 18 19  1  0
 18 23  1  0
 19 20  2  0
 19 38  1  0
 20 21  1  0
 20 39  1  0
 21 22  2  0
 21 40  1  0
 22 23  1  0
 22 41  1  0
 23 24  2  0
 24 25  1  0
 24 42  1  0
 25 26  2  0
 26 43  1  0
M  END
$$$$
