LIG(A-307)
     RDKit          3D

 58 62  0  0  1  0  0  0  0  0999 V2000
    9.5175    1.2693   21.1289 O   0  0  0  0  0  0  0  0  0  0  0  0
    8.9960    0.3361   21.7189 C   0  0  0  0  0  0  0  0  0  0  0  0
    7.8262   -0.2083   21.3130 N   0  0  0  0  0  0  0  0  0  0  0  0
    7.0568    0.1625   20.1882 C   0  0  0  0  0  0  0  0  0  0  0  0
    5.8506    0.9020   20.4005 C   0  0  0  0  0  0  0  0  0  0  0  0
    5.3546    1.2567   21.6836 C   0  0  0  0  0  0  0  0  0  0  0  0
    4.2204    2.0062   21.8179 C   0  0  0  0  0  0  0  0  0  0  0  0
    3.5250    2.4420   20.6980 C   0  0  0  0  0  0  0  0  0  0  0  0
    3.9529    2.1153   19.4419 C   0  0  0  0  0  0  0  0  0  0  0  0
    5.1222    1.3338   19.2587 C   0  0  0  0  0  0  0  0  0  0  0  0
    5.6251    0.9811   17.9835 C   0  0  0  0  0  0  0  0  0  0  0  0
    6.7363    0.2836   17.7873 N   0  0  0  0  0  0  0  0  0  0  0  0
    7.4237   -0.1063   18.8681 C   0  0  0  0  0  0  0  0  0  0  0  0
    9.6135   -0.2168   23.0227 C   0  0  1  0  0  0  0  0  0  0  0  0
   11.1304   -0.0232   22.9855 C   0  0  0  0  0  0  0  0  0  0  0  0
   11.9166   -0.8118   22.1512 C   0  0  0  0  0  0  0  0  0  0  0  0
   13.2734   -0.5703   22.0750 C   0  0  0  0  0  0  0  0  0  0  0  0
   14.2136   -1.4348   20.8928 Cl  0  0  0  0  0  0  0  0  0  0  0  0
   13.8882    0.3969   22.8460 C   0  0  0  0  0  0  0  0  0  0  0  0
   13.1241    1.1615   23.7072 C   0  0  0  0  0  0  0  0  0  0  0  0
   11.7561    0.9530   23.7644 C   0  0  0  0  0  0  0  0  0  0  0  0
   11.0660    1.7406   24.6476 O   0  0  0  0  0  0  0  0  0  0  0  0
    9.9144    1.0771   25.1968 C   0  0  1  0  0  0  0  0  0  0  0  0
    8.9413    0.6478   24.1179 C   0  0  2  0  0  0  0  0  0  0  0  0
    9.3391   -1.7279   23.2226 C   0  0  1  0  0  0  0  0  0  0  0  0
    7.9873   -2.0695   23.6588 N   0  0  1  0  0  0  0  0  0  0  0  0
    7.6678   -3.4626   23.4078 C   0  0  1  0  0  0  0  0  0  0  0  0
    8.5233   -4.2893   24.3145 C   0  0  0  0  0  0  0  0  0  0  0  0
    9.3787   -5.3860   23.9913 C   0  0  0  0  0  0  0  0  0  0  0  0
    9.9231   -5.7759   25.1731 C   0  0  0  0  0  0  0  0  0  0  0  0
    8.5454   -4.0304   25.6266 N   0  0  0  0  0  0  0  0  0  0  0  0
    9.3979   -4.9582   26.1353 N   0  0  0  0  0  0  0  0  0  0  0  0
    9.5872   -5.0392   27.5763 C   0  0  1  0  0  0  0  0  0  0  0  0
    7.4663   -0.9560   21.8711 H   0  0  0  0  0  0  0  0  0  0  0  0
    5.8826    0.9286   22.5668 H   0  0  0  0  0  0  0  0  0  0  0  0
    3.8615    2.2620   22.8039 H   0  0  0  0  0  0  0  0  0  0  0  0
    2.6375    3.0450   20.8208 H   0  0  0  0  0  0  0  0  0  0  0  0
    3.3958    2.4552   18.5814 H   0  0  0  0  0  0  0  0  0  0  0  0
    5.0686    1.3003   17.1148 H   0  0  0  0  0  0  0  0  0  0  0  0
    8.3300   -0.6710   18.7067 H   0  0  0  0  0  0  0  0  0  0  0  0
   11.4699   -1.6045   21.5695 H   0  0  0  0  0  0  0  0  0  0  0  0
   14.9544    0.5539   22.7766 H   0  0  0  0  0  0  0  0  0  0  0  0
   13.5884    1.9131   24.3285 H   0  0  0  0  0  0  0  0  0  0  0  0
   10.2473    0.1866   25.7501 H   0  0  0  0  0  0  0  0  0  0  0  0
    9.4016    1.7657   25.8845 H   0  0  0  0  0  0  0  0  0  0  0  0
    8.1342    0.0629   24.5832 H   0  0  0  0  0  0  0  0  0  0  0  0
    8.5177    1.5471   23.6469 H   0  0  0  0  0  0  0  0  0  0  0  0
    9.5244   -2.2357   22.2645 H   0  0  0  0  0  0  0  0  0  0  0  0
   10.0442   -2.1032   23.9790 H   0  0  0  0  0  0  0  0  0  0  0  0
    7.9110   -1.8931   24.6402 H   0  0  0  0  0  0  0  0  0  0  0  0
    7.3345   -1.4950   23.1651 H   0  0  0  0  0  0  0  0  0  0  0  0
    6.6048   -3.6487   23.6210 H   0  0  0  0  0  0  0  0  0  0  0  0
    7.8806   -3.7137   22.3582 H   0  0  0  0  0  0  0  0  0  0  0  0
    9.5552   -5.8140   23.0155 H   0  0  0  0  0  0  0  0  0  0  0  0
   10.6326   -6.5760   25.3236 H   0  0  0  0  0  0  0  0  0  0  0  0
   10.2438   -5.8895   27.8131 H   0  0  0  0  0  0  0  0  0  0  0  0
   10.0479   -4.1083   27.9384 H   0  0  0  0  0  0  0  0  0  0  0  0
    8.6128   -5.1809   28.0665 H   0  0  0  0  0  0  0  0  0  0  0  0
  1  2  2  0
  2  3  1  0
 14  2  1  6
  3  4  1  0
  3 34  1  0
  4  5  2  0
  4 13  1  0
  5  6  1  0
  5 10  1  0
  6  7  2  0
  6 35  1  0
  7  8  1  0
  7 36  1  0
  8  9  2  0
  8 37  1  0
  9 10  1  0
  9 38  1  0
 10 11  2  0
 11 12  1  0
 11 39  1  0
 12 13  2  0
 13 40  1  0
 14 15  1  0
 14 24  1  0
 14 25  1  0
 15 16  2  0
 15 21  1  0
 16 17  1  0
 16 41  1  0
 17 18  1  0
 17 19  2  0
 19 20  1  0
 19 42  1  0
 20 21  2  0
 20 43  1  0
 21 22  1  0
 22 23  1  0
 23 24  1  0
 23 44  1  1
 23 45  1  0
 24 46  1  1
 24 47  1  0
 25 26  1  0
 25 48  1  6
 25 49  1  0
 26 27  1  0
 26 50  1  1
 26 51  1  0
 27 28  1  0
 27 52  1  1
 27 53  1  0
 28 29  1  0
 28 31  2  0
 29 30  2  0
 29 54  1  0
 30 32  1  0
 30 55  1  0
 31 32  1  0
 32 33  1  0
 33 56  1  6
 33 57  1  0
 33 58  1  0
M  CHG  1  26   1
M  END
$$$$
