LIG(A-307)
     RDKit          3D

 48 51  0  0  1  0  0  0  0  0999 V2000
  -14.2433    6.1374  -22.0883 O   0  0  0  0  0  0  0  0  0  0  0  0
  -14.2169    4.9372  -22.3312 C   0  0  0  0  0  0  0  0  0  0  0  0
  -13.4352    3.7388  -21.8124 C   0  0  1  0  0  0  0  0  0  0  0  0
  -14.9153    4.1809  -23.1983 N   0  0  0  0  0  0  0  0  0  0  0  0
  -14.4569    2.9075  -22.5965 C   0  0  1  0  0  0  0  0  0  0  0  0
  -13.7006    2.0981  -23.5155 O   0  0  0  0  0  0  0  0  0  0  0  0
  -13.4044    0.8279  -23.0774 C   0  0  0  0  0  0  0  0  0  0  0  0
  -14.4043   -0.0482  -22.6809 C   0  0  0  0  0  0  0  0  0  0  0  0
  -14.0381   -1.3165  -22.2759 C   0  0  0  0  0  0  0  0  0  0  0  0
  -15.2678   -2.4098  -21.7128 Cl  0  0  0  0  0  0  0  0  0  0  0  0
  -12.0693    0.4518  -23.0627 C   0  0  0  0  0  0  0  0  0  0  0  0
  -11.7443   -0.8332  -22.6598 C   0  0  0  0  0  0  0  0  0  0  0  0
  -12.7233   -1.7364  -22.2745 C   0  0  0  0  0  0  0  0  0  0  0  0
  -10.4037   -1.1171  -22.6753 O   0  0  0  0  0  0  0  0  0  0  0  0
   -9.9739   -2.4315  -22.2958 C   0  0  1  0  0  0  0  0  0  0  0  0
   -8.4798   -2.4219  -22.3273 C   0  0  1  0  0  0  0  0  0  0  0  0
   -7.9520   -1.4030  -21.4297 N   0  0  0  0  0  0  0  0  0  0  0  0
   -6.7185   -1.4745  -20.9324 C   0  0  0  0  0  0  0  0  0  0  0  0
   -5.9658   -2.4246  -21.1574 O   0  0  0  0  0  0  0  0  0  0  0  0
   -6.2902   -0.3375  -20.0977 C   0  0  0  0  0  0  0  0  0  0  0  0
   -5.3200    0.6335  -20.5824 C   0  0  0  0  0  0  0  0  0  0  0  0
   -4.8213    0.6327  -21.8882 C   0  0  0  0  0  0  0  0  0  0  0  0
   -3.9159    1.6053  -22.2848 C   0  0  0  0  0  0  0  0  0  0  0  0
   -3.4824    2.5697  -21.3916 C   0  0  0  0  0  0  0  0  0  0  0  0
   -3.9581    2.5855  -20.0886 C   0  0  0  0  0  0  0  0  0  0  0  0
   -4.8894    1.6259  -19.6809 C   0  0  0  0  0  0  0  0  0  0  0  0
   -5.4250    1.6572  -18.3977 N   0  0  0  0  0  0  0  0  0  0  0  0
   -6.3847    0.7933  -17.9362 C   0  0  0  0  0  0  0  0  0  0  0  0
   -6.8919    0.9628  -16.8219 O   0  0  0  0  0  0  0  0  0  0  0  0
   -6.7895   -0.2272  -18.8419 C   0  0  0  0  0  0  0  0  0  0  0  0
  -12.3976    3.6655  -22.1701 H   0  0  0  0  0  0  0  0  0  0  0  0
  -13.4575    3.6014  -20.7212 H   0  0  0  0  0  0  0  0  0  0  0  0
  -15.5197    4.3982  -23.9648 H   0  0  0  0  0  0  0  0  0  0  0  0
  -15.1962    2.3816  -21.9747 H   0  0  0  0  0  0  0  0  0  0  0  0
  -15.4412    0.2536  -22.6888 H   0  0  0  0  0  0  0  0  0  0  0  0
  -11.2982    1.1473  -23.3596 H   0  0  0  0  0  0  0  0  0  0  0  0
  -12.4637   -2.7428  -21.9809 H   0  0  0  0  0  0  0  0  0  0  0  0
  -10.3300   -2.6686  -21.2825 H   0  0  0  0  0  0  0  0  0  0  0  0
  -10.3629   -3.1769  -23.0050 H   0  0  0  0  0  0  0  0  0  0  0  0
   -8.1059   -3.4078  -22.0139 H   0  0  0  0  0  0  0  0  0  0  0  0
   -8.1416   -2.2104  -23.3523 H   0  0  0  0  0  0  0  0  0  0  0  0
   -8.5323   -0.6278  -21.1800 H   0  0  0  0  0  0  0  0  0  0  0  0
   -5.1410   -0.1253  -22.5881 H   0  0  0  0  0  0  0  0  0  0  0  0
   -3.5458    1.6103  -23.2994 H   0  0  0  0  0  0  0  0  0  0  0  0
   -2.7690    3.3149  -21.7112 H   0  0  0  0  0  0  0  0  0  0  0  0
   -3.6108    3.3350  -19.3929 H   0  0  0  0  0  0  0  0  0  0  0  0
   -5.0885    2.3582  -17.7734 H   0  0  0  0  0  0  0  0  0  0  0  0
   -7.5268   -0.9453  -18.5146 H   0  0  0  0  0  0  0  0  0  0  0  0
  1  2  2  0
  2  3  1  0
  2  4  1  0
  3  5  1  0
  3 31  1  6
  3 32  1  0
  4  5  1  0
  4 33  1  0
  5  6  1  0
  5 34  1  1
  6  7  1  0
  7  8  2  0
  7 11  1  0
  8  9  1  0
  8 35  1  0
  9 10  1  0
  9 13  2  0
 11 12  2  0
 11 36  1  0
 12 13  1  0
 12 14  1  0
 13 37  1  0
 14 15  1  0
 15 16  1  0
 15 38  1  1
 15 39  1  0
 16 17  1  0
 16 40  1  1
 16 41  1  0
 17 18  1  0
 17 42  1  0
 18 19  2  0
 18 20  1  0
 20 21  1  0
 20 30  2  0
 21 22  2  0
 21 26  1  0
 22 23  1  0
 22 43  1  0
 23 24  2  0
 23 44  1  0
 24 25  1  0
 24 45  1  0
 25 26  2  0
 25 46  1  0
 26 27  1  0
 27 28  1  0
 27 47  1  0
 28 29  2  0
 28 30  1  0
 30 48  1  0
M  END
$$$$
