LIG(A-306)
     RDKit          3D

 45 48  0  0  1  0  0  0  0  0999 V2000
   14.1273   -1.7118   21.1723 Cl  0  0  0  0  0  0  0  0  0  0  0  0
   12.9540   -0.8895   22.1624 C   0  0  0  0  0  0  0  0  0  0  0  0
   11.6197   -1.2431   22.0598 C   0  0  0  0  0  0  0  0  0  0  0  0
   13.3686    0.1294   22.9881 C   0  0  0  0  0  0  0  0  0  0  0  0
   12.4302    0.7940   23.7559 C   0  0  0  0  0  0  0  0  0  0  0  0
   11.0785    0.4537   23.6968 C   0  0  0  0  0  0  0  0  0  0  0  0
   10.1329    1.0789   24.6985 C   0  0  1  0  0  0  0  0  0  0  0  0
    8.7127    0.8702   24.3769 N   0  0  0  0  0  0  0  0  0  0  0  0
    7.7157    1.7748   24.5946 C   0  0  0  0  0  0  0  0  0  0  0  0
    6.5473    1.4352   24.5266 O   0  0  0  0  0  0  0  0  0  0  0  0
    8.0919    3.2025   24.9014 C   0  0  1  0  0  0  0  0  0  0  0  0
   10.6653   -0.5517   22.8087 C   0  0  0  0  0  0  0  0  0  0  0  0
    9.1859   -0.8371   22.6399 C   0  0  1  0  0  0  0  0  0  0  0  0
    8.4313   -0.4969   23.9261 C   0  0  2  0  0  0  0  0  0  0  0  0
    8.5981   -0.0693   21.4535 C   0  0  0  0  0  0  0  0  0  0  0  0
    9.0882    0.9860   21.0491 O   0  0  0  0  0  0  0  0  0  0  0  0
    7.4982   -0.6264   20.9007 N   0  0  0  0  0  0  0  0  0  0  0  0
    6.7328   -0.1207   19.8296 C   0  0  0  0  0  0  0  0  0  0  0  0
    5.6225    0.7348   20.1216 C   0  0  0  0  0  0  0  0  0  0  0  0
    5.1644    1.0154   21.4344 C   0  0  0  0  0  0  0  0  0  0  0  0
    4.1262    1.8790   21.6484 C   0  0  0  0  0  0  0  0  0  0  0  0
    3.4831    2.4932   20.5808 C   0  0  0  0  0  0  0  0  0  0  0  0
    3.8802    2.2478   19.2961 C   0  0  0  0  0  0  0  0  0  0  0  0
    4.9609    1.3687   19.0312 C   0  0  0  0  0  0  0  0  0  0  0  0
    5.4343    1.1020   17.7253 C   0  0  0  0  0  0  0  0  0  0  0  0
    6.4548    0.3011   17.4515 N   0  0  0  0  0  0  0  0  0  0  0  0
    7.0714   -0.2910   18.4851 C   0  0  0  0  0  0  0  0  0  0  0  0
   11.3190   -2.0480   21.4053 H   0  0  0  0  0  0  0  0  0  0  0  0
   14.4114    0.4061   23.0359 H   0  0  0  0  0  0  0  0  0  0  0  0
   12.7489    1.5899   24.4125 H   0  0  0  0  0  0  0  0  0  0  0  0
   10.3338    0.6402   25.6871 H   0  0  0  0  0  0  0  0  0  0  0  0
   10.3267    2.1611   24.7314 H   0  0  0  0  0  0  0  0  0  0  0  0
    7.1794    3.8021   25.0352 H   0  0  0  0  0  0  0  0  0  0  0  0
    8.6895    3.2338   25.8244 H   0  0  0  0  0  0  0  0  0  0  0  0
    8.6815    3.6133   24.0686 H   0  0  0  0  0  0  0  0  0  0  0  0
    9.0623   -1.9128   22.4455 H   0  0  0  0  0  0  0  0  0  0  0  0
    7.3514   -0.5961   23.7422 H   0  0  0  0  0  0  0  0  0  0  0  0
    8.7353   -1.2015   24.7143 H   0  0  0  0  0  0  0  0  0  0  0  0
    7.1931   -1.4933   21.2948 H   0  0  0  0  0  0  0  0  0  0  0  0
    5.6430    0.5396   22.2777 H   0  0  0  0  0  0  0  0  0  0  0  0
    3.8026    2.0860   22.6578 H   0  0  0  0  0  0  0  0  0  0  0  0
    2.6627    3.1702   20.7677 H   0  0  0  0  0  0  0  0  0  0  0  0
    3.3666    2.7273   18.4761 H   0  0  0  0  0  0  0  0  0  0  0  0
    4.9323    1.5815   16.8982 H   0  0  0  0  0  0  0  0  0  0  0  0
    7.8953   -0.9521   18.2599 H   0  0  0  0  0  0  0  0  0  0  0  0
  1  2  1  0
  2  3  2  0
  2  4  1  0
  3 12  1  0
  3 28  1  0
  4  5  2  0
  4 29  1  0
  5  6  1  0
  5 30  1  0
  6  7  1  0
  6 12  2  0
  7  8  1  0
  7 31  1  1
  7 32  1  0
  8  9  1  0
  8 14  1  0
  9 10  2  0
  9 11  1  0
 11 33  1  1
 11 34  1  0
 11 35  1  0
 12 13  1  0
 13 14  1  0
 13 15  1  0
 13 36  1  6
 14 37  1  6
 14 38  1  0
 15 16  2  0
 15 17  1  0
 17 18  1  0
 17 39  1  0
 18 19  2  0
 18 27  1  0
 19 20  1  0
 19 24  1  0
 20 21  2  0
 20 40  1  0
 21 22  1  0
 21 41  1  0
 22 23  2  0
 22 42  1  0
 23 24  1  0
 23 43  1  0
 24 25  2  0
 25 26  1  0
 25 44  1  0
 26 27  2  0
 27 45  1  0
M  END
$$$$
