LIG(A-305)
     RDKit          3D

 25 26  0  0  0  0  0  0  0  0999 V2000
    7.6574   -4.6465   21.2243 N   0  0  0  0  0  0  0  0  0  0  0  0
    7.2554   -3.0585   19.4122 C   0  0  1  0  0  0  0  0  0  0  0  0
    5.8854   -4.9255   19.8593 O   0  0  0  0  0  0  0  0  0  0  0  0
    6.8834   -4.2925   20.2083 C   0  0  0  0  0  0  0  0  0  0  0  0
    7.1854   -5.5034   22.2963 C   0  0  1  0  0  0  0  0  0  0  0  0
    6.1125   -4.8124   23.0943 C   0  0  0  0  0  0  0  0  0  0  0  0
    6.2865   -3.5044   23.5093 C   0  0  0  0  0  0  0  0  0  0  0  0
    5.3145   -2.8174   24.2403 C   0  0  0  0  0  0  0  0  0  0  0  0
    4.1715   -3.5034   24.5253 C   0  0  0  0  0  0  0  0  0  0  0  0
    2.1265   -4.1373   25.1604 C   0  0  1  0  0  0  0  0  0  0  0  0
    3.9815   -4.8014   24.1094 C   0  0  0  0  0  0  0  0  0  0  0  0
    4.9215   -5.4824   23.3904 C   0  0  0  0  0  0  0  0  0  0  0  0
    3.0685   -3.0643   25.2184 O   0  0  0  0  0  0  0  0  0  0  0  0
    2.7475   -5.2503   24.5184 O   0  0  0  0  0  0  0  0  0  0  0  0
    8.5992   -4.3115   21.2532 H   0  0  0  0  0  0  0  0  0  0  0  0
    6.5300   -2.9144   18.5980 H   0  0  0  0  0  0  0  0  0  0  0  0
    7.2444   -2.1791   20.0729 H   0  0  0  0  0  0  0  0  0  0  0  0
    8.2623   -3.1859   18.9879 H   0  0  0  0  0  0  0  0  0  0  0  0
    6.7759   -6.4290   21.8654 H   0  0  0  0  0  0  0  0  0  0  0  0
    8.0276   -5.7492   22.9599 H   0  0  0  0  0  0  0  0  0  0  0  0
    7.2062   -2.9965   23.2592 H   0  0  0  0  0  0  0  0  0  0  0  0
    5.4607   -1.7970   24.5626 H   0  0  0  0  0  0  0  0  0  0  0  0
    1.8217   -4.4191   26.1791 H   0  0  0  0  0  0  0  0  0  0  0  0
    1.2419   -3.8240   24.5865 H   0  0  0  0  0  0  0  0  0  0  0  0
    4.7518   -6.4977   23.0635 H   0  0  0  0  0  0  0  0  0  0  0  0
  1  4  1  0
  1  5  1  0
  1 15  1  0
  2  4  1  0
  2 16  1  6
  2 17  1  0
  2 18  1  0
  3  4  2  0
  5  6  1  0
  5 19  1  6
  5 20  1  0
  6  7  2  0
  6 12  1  0
  7  8  1  0
  7 21  1  0
  8  9  2  0
  8 22  1  0
  9 11  1  0
  9 13  1  0
 10 13  1  0
 10 14  1  0
 10 23  1  1
 10 24  1  0
 11 12  2  0
 11 14  1  0
 12 25  1  0
M  END
$$$$
