LIG(A-305)
     RDKit          3D

 66 68  0  0  1  0  0  0  0  0999 V2000
    9.1753    1.3672   21.0923 O   0  0  0  0  0  0  0  0  0  0  0  0
    8.1503    1.2292   21.7565 C   0  0  0  0  0  0  0  0  0  0  0  0
    7.1583    0.0962   21.4516 C   0  0  1  0  0  0  0  0  0  0  0  0
    6.5151    0.2662   20.0877 C   0  0  0  0  0  0  0  0  0  0  0  0
    5.3091    0.9392   19.9498 C   0  0  0  0  0  0  0  0  0  0  0  0
    4.8509    1.2902   18.6929 C   0  0  0  0  0  0  0  0  0  0  0  0
    5.6148    0.9382   17.5978 C   0  0  0  0  0  0  0  0  0  0  0  0
    6.7658    0.2622   17.6897 N   0  0  0  0  0  0  0  0  0  0  0  0
    7.1849   -0.0648   18.9186 C   0  0  0  0  0  0  0  0  0  0  0  0
    7.6433   -1.2548   21.8055 N   0  0  0  0  0  0  0  0  0  0  0  0
    8.8524   -1.3318   22.5224 C   0  0  0  0  0  0  0  0  0  0  0  0
    8.8646   -1.2198   23.8554 N   0  0  0  0  0  0  0  0  0  0  0  0
   10.1346   -1.2358   24.3542 N   0  0  0  0  0  0  0  0  0  0  0  0
   10.9155   -1.3759   23.2851 C   0  0  0  0  0  0  0  0  0  0  0  0
   12.4235   -1.4529   23.4509 C   0  0  2  0  0  0  0  0  0  0  0  0
   13.0823   -1.7119   22.0928 C   0  0  1  0  0  0  0  0  0  0  0  0
   12.7876   -2.5809   24.4188 C   0  0  1  0  0  0  0  0  0  0  0  0
   12.9546   -0.1429   24.0328 C   0  0  1  0  0  0  0  0  0  0  0  0
   10.1533   -1.4429   22.1032 C   0  0  0  0  0  0  0  0  0  0  0  0
    6.8952   -2.3998   21.5297 C   0  0  0  0  0  0  0  0  0  0  0  0
    5.7252   -2.2738   21.2178 O   0  0  0  0  0  0  0  0  0  0  0  0
    7.5622   -3.7438   21.5736 C   0  0  1  0  0  0  0  0  0  0  0  0
    7.3410   -4.4728   20.2886 C   0  0  1  0  0  0  0  0  0  0  0  0
    7.7555    2.0642   22.7415 N   0  0  0  0  0  0  0  0  0  0  0  0
    8.3646    3.3292   22.9764 C   0  0  0  0  0  0  0  0  0  0  0  0
    7.7275    4.4822   22.5015 C   0  0  0  0  0  0  0  0  0  0  0  0
    6.3614    4.4242   21.8647 C   0  0  1  0  0  0  0  0  0  0  0  0
    8.3696    5.7042   22.6844 C   0  0  0  0  0  0  0  0  0  0  0  0
    9.5797    5.7862   23.3492 C   0  0  0  0  0  0  0  0  0  0  0  0
   10.1867    4.6382   23.8302 C   0  0  0  0  0  0  0  0  0  0  0  0
    9.5987    3.3892   23.6452 C   0  0  0  0  0  0  0  0  0  0  0  0
   10.3077    2.1482   24.1442 C   0  0  1  0  0  0  0  0  0  0  0  0
    9.6428    1.4272   25.3143 C   0  0  1  0  0  0  0  0  0  0  0  0
    6.3328    0.2786   22.1553 H   0  0  0  0  0  0  0  0  0  0  0  0
    4.7277    1.1892   20.8250 H   0  0  0  0  0  0  0  0  0  0  0  0
    3.9207    1.8253   18.5712 H   0  0  0  0  0  0  0  0  0  0  0  0
    5.2651    1.2232   16.6166 H   0  0  0  0  0  0  0  0  0  0  0  0
    8.1053   -0.6231   19.0056 H   0  0  0  0  0  0  0  0  0  0  0  0
    8.0439   -1.1349   24.4235 H   0  0  0  0  0  0  0  0  0  0  0  0
   14.1737   -1.7667   22.2187 H   0  0  0  0  0  0  0  0  0  0  0  0
   12.7126   -2.6627   21.6815 H   0  0  0  0  0  0  0  0  0  0  0  0
   12.8337   -0.8923   21.4025 H   0  0  0  0  0  0  0  0  0  0  0  0
   13.8807   -2.6288   24.5324 H   0  0  0  0  0  0  0  0  0  0  0  0
   12.3256   -2.3870   25.3981 H   0  0  0  0  0  0  0  0  0  0  0  0
   12.4181   -3.5380   24.0221 H   0  0  0  0  0  0  0  0  0  0  0  0
   14.0465   -0.2087   24.1490 H   0  0  0  0  0  0  0  0  0  0  0  0
   12.7076    0.6866   23.3539 H   0  0  0  0  0  0  0  0  0  0  0  0
   12.4918    0.0364   25.0145 H   0  0  0  0  0  0  0  0  0  0  0  0
   10.5133   -1.5565   21.0914 H   0  0  0  0  0  0  0  0  0  0  0  0
    8.6421   -3.6083   21.7330 H   0  0  0  0  0  0  0  0  0  0  0  0
    7.1402   -4.3318   22.4019 H   0  0  0  0  0  0  0  0  0  0  0  0
    7.8343   -5.4549   20.3340 H   0  0  0  0  0  0  0  0  0  0  0  0
    6.2619   -4.6118   20.1272 H   0  0  0  0  0  0  0  0  0  0  0  0
    7.7637   -3.8883   19.4581 H   0  0  0  0  0  0  0  0  0  0  0  0
    7.0007    1.7809   23.3331 H   0  0  0  0  0  0  0  0  0  0  0  0
    5.6370    4.0181   22.5860 H   0  0  0  0  0  0  0  0  0  0  0  0
    6.0529    5.4370   21.5660 H   0  0  0  0  0  0  0  0  0  0  0  0
    6.3980    3.7754   20.9772 H   0  0  0  0  0  0  0  0  0  0  0  0
    7.9141    6.6048   22.3000 H   0  0  0  0  0  0  0  0  0  0  0  0
   10.0517    6.7468   23.4935 H   0  0  0  0  0  0  0  0  0  0  0  0
   11.1277    4.7122   24.3550 H   0  0  0  0  0  0  0  0  0  0  0  0
   10.3764    1.4389   23.3061 H   0  0  0  0  0  0  0  0  0  0  0  0
   11.3196    2.4417   24.4599 H   0  0  0  0  0  0  0  0  0  0  0  0
   10.2411    0.5465   25.5906 H   0  0  0  0  0  0  0  0  0  0  0  0
    9.5757    2.1093   26.1747 H   0  0  0  0  0  0  0  0  0  0  0  0
    8.6324    1.1065   25.0208 H   0  0  0  0  0  0  0  0  0  0  0  0
  1  2  2  0
  2  3  1  0
  2 24  1  0
  3  4  1  0
  3 10  1  0
  3 34  1  1
  4  5  2  0
  4  9  1  0
  5  6  1  0
  5 35  1  0
  6  7  2  0
  6 36  1  0
  7  8  1  0
  7 37  1  0
  8  9  2  0
  9 38  1  0
 10 11  1  0
 10 20  1  0
 11 12  1  0
 11 19  2  0
 12 13  1  0
 12 39  1  0
 13 14  2  0
 15 14  1  6
 14 19  1  0
 15 16  1  0
 15 17  1  0
 15 18  1  0
 16 40  1  1
 16 41  1  0
 16 42  1  0
 17 43  1  1
 17 44  1  0
 17 45  1  0
 18 46  1  1
 18 47  1  0
 18 48  1  0
 19 49  1  0
 20 21  2  0
 20 22  1  0
 22 23  1  0
 22 50  1  1
 22 51  1  0
 23 52  1  1
 23 53  1  0
 23 54  1  0
 24 25  1  0
 24 55  1  0
 25 26  2  0
 25 31  1  0
 26 27  1  0
 26 28  1  0
 27 56  1  1
 27 57  1  0
 27 58  1  0
 28 29  2  0
 28 59  1  0
 29 30  1  0
 29 60  1  0
 30 31  2  0
 30 61  1  0
 31 32  1  0
 32 33  1  0
 32 62  1  6
 32 63  1  0
 33 64  1  1
 33 65  1  0
 33 66  1  0
M  END
$$$$
