LIG(A-301)
     RDKit          3D

 68 71  0  0  1  0  0  0  0  0999 V2000
    6.7395   -0.0605   24.9133 O   0  0  0  0  0  0  0  0  0  0  0  0
    7.5416   -0.8842   25.2905 C   0  0  0  0  0  0  0  0  0  0  0  0
    8.5871   -1.2827   24.5517 N   0  0  0  0  0  0  0  0  0  0  0  0
    7.4446   -1.4841   26.6786 C   0  0  1  0  0  0  0  0  0  0  0  0
    6.0467   -1.9700   28.6595 N   0  0  0  0  0  0  0  0  0  0  0  0
    6.0936   -4.2437   19.7566 O   0  0  0  0  0  0  0  0  0  0  0  0
    7.0013   -3.5678   20.1716 C   0  0  0  0  0  0  0  0  0  0  0  0
    6.9478   -2.0376   20.2194 C   0  0  2  0  0  0  0  0  0  0  0  0
    6.8558   -1.4772   18.8156 C   0  0  1  0  0  0  0  0  0  0  0  0
    6.0189   -0.2544   18.6208 C   0  0  0  0  0  0  0  0  0  0  0  0
    5.8740    0.3645   17.4517 N   0  0  0  0  0  0  0  0  0  0  0  0
    5.0417    1.3927   17.6122 C   0  0  0  0  0  0  0  0  0  0  0  0
    4.6552    1.4393   18.8871 N   0  0  0  0  0  0  0  0  0  0  0  0
    5.2518    0.4180   19.5277 C   0  0  0  0  0  0  0  0  0  0  0  0
    8.1188   -1.4594   20.8870 N   0  0  1  0  0  0  0  0  0  0  0  0
    8.1334   -1.8781   22.2718 C   0  0  1  0  0  0  0  0  0  0  0  0
    8.6864   -0.7898   23.1693 C   0  0  2  0  0  0  0  0  0  0  0  0
   10.1283   -0.3907   22.8309 C   0  0  1  0  0  0  0  0  0  0  0  0
   11.2107   -1.3522   23.2819 C   0  0  1  0  0  0  0  0  0  0  0  0
   12.5851   -0.7033   23.0999 C   0  0  1  0  0  0  0  0  0  0  0  0
   13.6895   -1.6094   23.6005 C   0  0  1  0  0  0  0  0  0  0  0  0
   13.4534   -2.1575   25.0103 C   0  0  1  0  0  0  0  0  0  0  0  0
   12.0467   -2.6986   25.1796 C   0  0  1  0  0  0  0  0  0  0  0  0
   11.0141   -1.6770   24.7302 C   0  0  2  0  0  0  0  0  0  0  0  0
    9.6215   -2.2144   25.0024 C   0  0  1  0  0  0  0  0  0  0  0  0
    6.1264   -1.2493   27.4006 C   0  0  1  0  0  0  0  0  0  0  0  0
    6.3937   -3.2724   28.7951 C   0  0  0  0  0  0  0  0  0  0  0  0
    6.3303   -4.1697   27.7211 C   0  0  0  0  0  0  0  0  0  0  0  0
    6.7254   -5.5028   27.8829 C   0  0  0  0  0  0  0  0  0  0  0  0
    7.1680   -5.9234   29.1315 C   0  0  0  0  0  0  0  0  0  0  0  0
    7.2135   -5.0452   30.1897 C   0  0  0  0  0  0  0  0  0  0  0  0
    6.8414   -3.7262   30.0140 C   0  0  0  0  0  0  0  0  0  0  0  0
    7.5942   -2.5703   26.5900 H   0  0  0  0  0  0  0  0  0  0  0  0
    8.2491   -1.0520   27.2919 H   0  0  0  0  0  0  0  0  0  0  0  0
    5.2939   -1.6816   29.2512 H   0  0  0  0  0  0  0  0  0  0  0  0
    7.8929   -4.0637   20.5259 H   0  0  0  0  0  0  0  0  0  0  0  0
    6.0416   -1.7439   20.7694 H   0  0  0  0  0  0  0  0  0  0  0  0
    7.8777   -1.2340   18.4890 H   0  0  0  0  0  0  0  0  0  0  0  0
    6.4428   -2.2668   18.1707 H   0  0  0  0  0  0  0  0  0  0  0  0
    6.3165    0.1014   16.5944 H   0  0  0  0  0  0  0  0  0  0  0  0
    4.7310    2.0765   16.8361 H   0  0  0  0  0  0  0  0  0  0  0  0
    5.1431    0.1733   20.5740 H   0  0  0  0  0  0  0  0  0  0  0  0
    8.9521   -1.7754   20.4334 H   0  0  0  0  0  0  0  0  0  0  0  0
    8.0716   -0.4616   20.8399 H   0  0  0  0  0  0  0  0  0  0  0  0
    7.1059   -2.1140   22.5859 H   0  0  0  0  0  0  0  0  0  0  0  0
    8.7616   -2.7759   22.3682 H   0  0  0  0  0  0  0  0  0  0  0  0
    8.0513    0.1021   23.0628 H   0  0  0  0  0  0  0  0  0  0  0  0
   10.2015   -0.2911   21.7379 H   0  0  0  0  0  0  0  0  0  0  0  0
   10.3266    0.5833   23.3020 H   0  0  0  0  0  0  0  0  0  0  0  0
   11.1592   -2.2730   22.6823 H   0  0  0  0  0  0  0  0  0  0  0  0
   12.7462   -0.4981   22.0313 H   0  0  0  0  0  0  0  0  0  0  0  0
   12.6132    0.2413   23.6629 H   0  0  0  0  0  0  0  0  0  0  0  0
   13.7791   -2.4602   22.9090 H   0  0  0  0  0  0  0  0  0  0  0  0
   14.6300   -1.0391   23.6040 H   0  0  0  0  0  0  0  0  0  0  0  0
   14.1715   -2.9685   25.2012 H   0  0  0  0  0  0  0  0  0  0  0  0
   13.6127   -1.3478   25.7377 H   0  0  0  0  0  0  0  0  0  0  0  0
   11.9368   -3.6112   24.5754 H   0  0  0  0  0  0  0  0  0  0  0  0
   11.8783   -2.9383   26.2399 H   0  0  0  0  0  0  0  0  0  0  0  0
   11.1544   -0.7590   25.3198 H   0  0  0  0  0  0  0  0  0  0  0  0
    9.5073   -2.3785   26.0841 H   0  0  0  0  0  0  0  0  0  0  0  0
    9.4974   -3.1697   24.4715 H   0  0  0  0  0  0  0  0  0  0  0  0
    6.0216   -0.1731   27.6028 H   0  0  0  0  0  0  0  0  0  0  0  0
    5.3038   -1.5821   26.7506 H   0  0  0  0  0  0  0  0  0  0  0  0
    5.9734   -3.8300   26.7601 H   0  0  0  0  0  0  0  0  0  0  0  0
    6.6871   -6.1921   27.0524 H   0  0  0  0  0  0  0  0  0  0  0  0
    7.4787   -6.9481   29.2724 H   0  0  0  0  0  0  0  0  0  0  0  0
    7.5409   -5.3877   31.1601 H   0  0  0  0  0  0  0  0  0  0  0  0
    6.9029   -3.0409   30.8465 H   0  0  0  0  0  0  0  0  0  0  0  0
  1  2  2  0
  2  3  1  0
  2  4  1  0
  3 17  1  0
  3 25  1  0
  4 26  1  0
  4 33  1  6
  4 34  1  0
  5 26  1  0
  5 27  1  0
  5 35  1  0
  6  7  2  0
  7  8  1  0
  7 36  1  0
  8  9  1  0
  8 15  1  0
  8 37  1  1
  9 10  1  0
  9 38  1  6
  9 39  1  0
 10 11  1  0
 10 14  2  0
 11 12  1  0
 11 40  1  0
 12 13  2  0
 12 41  1  0
 13 14  1  0
 14 42  1  0
 15 16  1  0
 15 43  1  6
 15 44  1  0
 16 17  1  0
 16 45  1  1
 16 46  1  0
 17 18  1  0
 17 47  1  1
 18 19  1  0
 18 48  1  6
 18 49  1  0
 19 20  1  0
 19 24  1  0
 19 50  1  6
 20 21  1  0
 20 51  1  6
 20 52  1  0
 21 22  1  0
 21 53  1  6
 21 54  1  0
 22 23  1  0
 22 55  1  1
 22 56  1  0
 23 24  1  0
 23 57  1  6
 23 58  1  0
 24 25  1  0
 24 59  1  1
 25 60  1  1
 25 61  1  0
 26 62  1  1
 26 63  1  0
 27 28  2  0
 27 32  1  0
 28 29  1  0
 28 64  1  0
 29 30  2  0
 29 65  1  0
 30 31  1  0
 30 66  1  0
 31 32  2  0
 31 67  1  0
 32 68  1  0
M  CHG  1  15   1
M  END
$$$$
