LIG(A-306)
     RDKit          3D

 69 73  0  0  1  0  0  0  0  0999 V2000
    9.2940    1.2490   20.9956 O   0  0  0  0  0  0  0  0  0  0  0  0
    8.8446    0.2434   21.5294 C   0  0  0  0  0  0  0  0  0  0  0  0
    7.6679   -0.2993   21.1282 N   0  0  0  0  0  0  0  0  0  0  0  0
    6.8476    0.1375   20.0624 C   0  0  0  0  0  0  0  0  0  0  0  0
    5.6877    0.9226   20.3584 C   0  0  0  0  0  0  0  0  0  0  0  0
    5.2731    1.2553   21.6743 C   0  0  0  0  0  0  0  0  0  0  0  0
    4.1612    2.0209   21.8894 C   0  0  0  0  0  0  0  0  0  0  0  0
    3.4117    2.4979   20.8223 C   0  0  0  0  0  0  0  0  0  0  0  0
    3.7702    2.2073   19.5371 C   0  0  0  0  0  0  0  0  0  0  0  0
    4.9132    1.4143   19.2682 C   0  0  0  0  0  0  0  0  0  0  0  0
    5.3398    1.0927   17.9602 C   0  0  0  0  0  0  0  0  0  0  0  0
    6.4105    0.3645   17.6839 N   0  0  0  0  0  0  0  0  0  0  0  0
    7.1279   -0.0967   18.7179 C   0  0  0  0  0  0  0  0  0  0  0  0
    9.6016   -0.4419   22.6988 C   0  0  1  0  0  0  0  0  0  0  0  0
   11.0897   -0.0791   22.7061 C   0  0  0  0  0  0  0  0  0  0  0  0
   11.9955   -0.8477   21.9791 C   0  0  0  0  0  0  0  0  0  0  0  0
   13.3074   -0.4331   21.8681 C   0  0  0  0  0  0  0  0  0  0  0  0
   14.3643   -1.2747   20.7675 Cl  0  0  0  0  0  0  0  0  0  0  0  0
   13.7717    0.6954   22.5105 C   0  0  0  0  0  0  0  0  0  0  0  0
   12.8989    1.4434   23.2777 C   0  0  0  0  0  0  0  0  0  0  0  0
   11.5729    1.0556   23.3755 C   0  0  0  0  0  0  0  0  0  0  0  0
   10.7840    1.8748   24.1502 O   0  0  0  0  0  0  0  0  0  0  0  0
    9.3617    1.6004   24.1833 C   0  0  1  0  0  0  0  0  0  0  0  0
    9.0204    0.1354   24.0091 C   0  0  2  0  0  0  0  0  0  0  0  0
    9.4755   -1.9877   22.6422 C   0  0  1  0  0  0  0  0  0  0  0  0
    8.2931   -2.5597   23.3912 C   0  0  0  0  0  0  0  0  0  0  0  0
    7.1647   -2.4566   22.9317 O   0  0  0  0  0  0  0  0  0  0  0  0
    8.5340   -3.2224   24.5436 N   0  0  0  0  0  0  0  0  0  0  0  0
    8.0799   -2.7059   25.8443 C   0  0  1  0  0  0  0  0  0  0  0  0
    9.1646   -2.8910   26.9053 C   0  0  1  0  0  0  0  0  0  0  0  0
    9.1054   -4.5788   24.5656 C   0  0  1  0  0  0  0  0  0  0  0  0
   10.1410   -4.7197   25.6913 C   0  0  1  0  0  0  0  0  0  0  0  0
    9.5732   -4.3025   26.9867 N   0  0  2  0  0  0  0  0  0  0  0  0
    8.4635   -5.1674   27.4237 C   0  0  1  0  0  0  0  0  0  0  0  0
    8.4817   -5.5245   28.9001 C   0  0  1  0  0  0  0  0  0  0  0  0
    7.1137   -5.4756   29.5590 C   0  0  1  0  0  0  0  0  0  0  0  0
    6.8435   -4.1965   30.1245 O   0  0  0  0  0  0  0  0  0  0  0  0
    7.3456   -1.0945   21.6419 H   0  0  0  0  0  0  0  0  0  0  0  0
    5.8445    0.8983   22.5183 H   0  0  0  0  0  0  0  0  0  0  0  0
    3.8625    2.2573   22.9000 H   0  0  0  0  0  0  0  0  0  0  0  0
    2.5378    3.1040   21.0103 H   0  0  0  0  0  0  0  0  0  0  0  0
    3.1768    2.5854   18.7178 H   0  0  0  0  0  0  0  0  0  0  0  0
    4.7545    1.4648   17.1324 H   0  0  0  0  0  0  0  0  0  0  0  0
    7.9945   -0.6996   18.4900 H   0  0  0  0  0  0  0  0  0  0  0  0
   11.6732   -1.7629   21.5049 H   0  0  0  0  0  0  0  0  0  0  0  0
   14.8059    0.9914   22.4150 H   0  0  0  0  0  0  0  0  0  0  0  0
   13.2482    2.3235   23.7971 H   0  0  0  0  0  0  0  0  0  0  0  0
    8.9656    1.9364   25.1529 H   0  0  0  0  0  0  0  0  0  0  0  0
    8.8796    2.1680   23.3737 H   0  0  0  0  0  0  0  0  0  0  0  0
    9.4318   -0.4287   24.8591 H   0  0  0  0  0  0  0  0  0  0  0  0
    7.9260    0.0253   23.9912 H   0  0  0  0  0  0  0  0  0  0  0  0
    9.3869   -2.2844   21.5866 H   0  0  0  0  0  0  0  0  0  0  0  0
   10.3921   -2.4208   23.0692 H   0  0  0  0  0  0  0  0  0  0  0  0
    7.8485   -1.6349   25.7471 H   0  0  0  0  0  0  0  0  0  0  0  0
    7.1753   -3.2499   26.1534 H   0  0  0  0  0  0  0  0  0  0  0  0
   10.0378   -2.2765   26.6410 H   0  0  0  0  0  0  0  0  0  0  0  0
    8.7732   -2.5710   27.8823 H   0  0  0  0  0  0  0  0  0  0  0  0
    8.2972   -5.3074   24.7266 H   0  0  0  0  0  0  0  0  0  0  0  0
    9.5934   -4.7796   23.6004 H   0  0  0  0  0  0  0  0  0  0  0  0
   10.4578   -5.7709   25.7593 H   0  0  0  0  0  0  0  0  0  0  0  0
   11.0118   -4.0885   25.4602 H   0  0  0  0  0  0  0  0  0  0  0  0
   10.2986   -4.3700   27.6717 H   0  0  0  0  0  0  0  0  0  0  0  0
    7.5183   -4.6474   27.2084 H   0  0  0  0  0  0  0  0  0  0  0  0
    8.5083   -6.1015   26.8445 H   0  0  0  0  0  0  0  0  0  0  0  0
    8.8813   -6.5439   29.0055 H   0  0  0  0  0  0  0  0  0  0  0  0
    9.1429   -4.8158   29.4203 H   0  0  0  0  0  0  0  0  0  0  0  0
    6.3464   -5.6999   28.8033 H   0  0  0  0  0  0  0  0  0  0  0  0
    7.0754   -6.2325   30.3563 H   0  0  0  0  0  0  0  0  0  0  0  0
    6.7639   -4.2771   31.0678 H   0  0  0  0  0  0  0  0  0  0  0  0
  1  2  2  0
  2  3  1  0
 14  2  1  6
  3  4  1  0
  3 38  1  0
  4  5  2  0
  4 13  1  0
  5  6  1  0
  5 10  1  0
  6  7  2  0
  6 39  1  0
  7  8  1  0
  7 40  1  0
  8  9  2  0
  8 41  1  0
  9 10  1  0
  9 42  1  0
 10 11  2  0
 11 12  1  0
 11 43  1  0
 12 13  2  0
 13 44  1  0
 14 15  1  0
 14 24  1  0
 14 25  1  0
 15 16  2  0
 15 21  1  0
 16 17  1  0
 16 45  1  0
 17 18  1  0
 17 19  2  0
 19 20  1  0
 19 46  1  0
 20 21  2  0
 20 47  1  0
 21 22  1  0
 22 23  1  0
 23 24  1  0
 23 48  1  1
 23 49  1  0
 24 50  1  1
 24 51  1  0
 25 26  1  0
 25 52  1  6
 25 53  1  0
 26 27  2  0
 26 28  1  0
 28 29  1  0
 28 31  1  0
 29 30  1  0
 29 54  1  6
 29 55  1  0
 30 33  1  0
 30 56  1  6
 30 57  1  0
 31 32  1  0
 31 58  1  1
 31 59  1  0
 32 33  1  0
 32 60  1  1
 32 61  1  0
 33 34  1  0
 33 62  1  1
 34 35  1  0
 34 63  1  1
 34 64  1  0
 35 36  1  0
 35 65  1  6
 35 66  1  0
 36 37  1  0
 36 67  1  6
 36 68  1  0
 37 69  1  0
M  CHG  1  33   1
M  END
$$$$
