LIG(A-306)
     RDKit          3D

 57 60  0  0  1  0  0  0  0  0999 V2000
   10.7932    2.9644   24.5370 O   0  0  0  0  0  0  0  0  0  0  0  0
   10.4587    1.8514   24.1792 C   0  0  0  0  0  0  0  0  0  0  0  0
    9.1613    1.4048   24.3055 N   0  0  0  0  0  0  0  0  0  0  0  0
    8.2323    2.1398   25.1431 C   0  0  1  0  0  0  0  0  0  0  0  0
    7.4576    3.2648   24.4754 C   0  0  0  0  0  0  0  0  0  0  0  0
    6.6160    3.8964   25.1076 O   0  0  0  0  0  0  0  0  0  0  0  0
    7.7314    3.5207   23.2007 N   0  0  0  0  0  0  0  0  0  0  0  0
    7.0035    4.5136   22.4341 C   0  0  1  0  0  0  0  0  0  0  0  0
   11.3923    0.9598   23.4702 C   0  0  0  0  0  0  0  0  0  0  0  0
   12.7404    1.3123   23.3808 C   0  0  0  0  0  0  0  0  0  0  0  0
   13.6328    0.4979   22.7106 C   0  0  0  0  0  0  0  0  0  0  0  0
   13.1760   -0.6660   22.1326 C   0  0  0  0  0  0  0  0  0  0  0  0
   14.2920   -1.6792   21.2634 Cl  0  0  0  0  0  0  0  0  0  0  0  0
   11.8447   -1.0310   22.1926 C   0  0  0  0  0  0  0  0  0  0  0  0
   10.9311   -0.2029   22.8420 C   0  0  0  0  0  0  0  0  0  0  0  0
    9.4524   -0.5193   22.8031 C   0  0  1  0  0  0  0  0  0  0  0  0
    8.7798    0.0100   24.0668 C   0  0  2  0  0  0  0  0  0  0  0  0
    8.8132    0.1872   21.6045 C   0  0  0  0  0  0  0  0  0  0  0  0
    9.2077    1.2797   21.2043 O   0  0  0  0  0  0  0  0  0  0  0  0
    7.7442   -0.4487   21.0813 N   0  0  0  0  0  0  0  0  0  0  0  0
    6.8937    0.0156   20.0590 C   0  0  0  0  0  0  0  0  0  0  0  0
    5.7164    0.7340   20.4321 C   0  0  0  0  0  0  0  0  0  0  0  0
    4.9581    1.3481   19.3970 C   0  0  0  0  0  0  0  0  0  0  0  0
    5.3974    1.1749   18.0615 C   0  0  0  0  0  0  0  0  0  0  0  0
    6.4773    0.4843   17.7160 N   0  0  0  0  0  0  0  0  0  0  0  0
    7.1964   -0.0729   18.6996 C   0  0  0  0  0  0  0  0  0  0  0  0
    5.2692    0.8720   21.7707 C   0  0  0  0  0  0  0  0  0  0  0  0
    4.1395    1.6025   22.0721 C   0  0  0  0  0  0  0  0  0  0  0  0
    3.4220    2.2183   21.0465 C   0  0  0  0  0  0  0  0  0  0  0  0
    3.8090    2.1006   19.7444 C   0  0  0  0  0  0  0  0  0  0  0  0
    3.7379    1.6821   23.4444 N   0  0  0  0  0  0  0  0  0  0  0  0
    2.4797    2.4926   24.0923 S   0  0  1  0  0  0  0  0  0  0  0  0
    1.3087    2.1853   23.3301 O   0  0  0  0  0  0  0  0  0  0  0  0
    2.4944    2.1805   25.4883 O   0  0  0  0  0  0  0  0  0  0  0  0
    2.8365    4.1980   23.9056 C   0  0  1  0  0  0  0  0  0  0  0  0
    7.5008    1.4209   25.5406 H   0  0  0  0  0  0  0  0  0  0  0  0
    8.8058    2.5767   25.9738 H   0  0  0  0  0  0  0  0  0  0  0  0
    8.4659    3.0102   22.7536 H   0  0  0  0  0  0  0  0  0  0  0  0
    7.4022    4.5513   21.4096 H   0  0  0  0  0  0  0  0  0  0  0  0
    5.9376    4.2436   22.4029 H   0  0  0  0  0  0  0  0  0  0  0  0
    7.1183    5.4994   22.9087 H   0  0  0  0  0  0  0  0  0  0  0  0
   13.0876    2.2270   23.8383 H   0  0  0  0  0  0  0  0  0  0  0  0
   14.6755    0.7703   22.6408 H   0  0  0  0  0  0  0  0  0  0  0  0
   11.5138   -1.9534   21.7385 H   0  0  0  0  0  0  0  0  0  0  0  0
    9.2991   -1.6056   22.7229 H   0  0  0  0  0  0  0  0  0  0  0  0
    7.6878   -0.0515   23.9487 H   0  0  0  0  0  0  0  0  0  0  0  0
    9.0906   -0.6024   24.9260 H   0  0  0  0  0  0  0  0  0  0  0  0
    7.5324   -1.3490   21.4614 H   0  0  0  0  0  0  0  0  0  0  0  0
    4.8172    1.6338   17.2746 H   0  0  0  0  0  0  0  0  0  0  0  0
    8.0765   -0.6326   18.4193 H   0  0  0  0  0  0  0  0  0  0  0  0
    5.8228    0.3971   22.5672 H   0  0  0  0  0  0  0  0  0  0  0  0
    2.5440    2.7989   21.2883 H   0  0  0  0  0  0  0  0  0  0  0  0
    3.2337    2.5859   18.9699 H   0  0  0  0  0  0  0  0  0  0  0  0
    3.9380    0.8389   23.9433 H   0  0  0  0  0  0  0  0  0  0  0  0
    2.0142    4.7936   24.3289 H   0  0  0  0  0  0  0  0  0  0  0  0
    3.7716    4.4368   24.4334 H   0  0  0  0  0  0  0  0  0  0  0  0
    2.9479    4.4343   22.8370 H   0  0  0  0  0  0  0  0  0  0  0  0
  1  2  2  0
  2  3  1  0
  2  9  1  0
  3  4  1  0
  3 17  1  0
  4  5  1  0
  4 36  1  1
  4 37  1  0
  5  6  2  0
  5  7  1  0
  7  8  1  0
  7 38  1  0
  8 39  1  6
  8 40  1  0
  8 41  1  0
  9 10  2  0
  9 15  1  0
 10 11  1  0
 10 42  1  0
 11 12  2  0
 11 43  1  0
 12 13  1  0
 12 14  1  0
 14 15  2  0
 14 44  1  0
 15 16  1  0
 16 17  1  0
 16 18  1  0
 16 45  1  6
 17 46  1  6
 17 47  1  0
 18 19  2  0
 18 20  1  0
 20 21  1  0
 20 48  1  0
 21 22  2  0
 21 26  1  0
 22 23  1  0
 22 27  1  0
 23 24  2  0
 23 30  1  0
 24 25  1  0
 24 49  1  0
 25 26  2  0
 26 50  1  0
 27 28  2  0
 27 51  1  0
 28 29  1  0
 28 31  1  0
 29 30  2  0
 29 52  1  0
 30 53  1  0
 32 31  1  6
 31 54  1  0
 32 33  2  0
 32 34  2  0
 32 35  1  0
 35 55  1  1
 35 56  1  0
 35 57  1  0
M  END
$$$$
