LIG(A-306)
     RDKit          3D

 47 50  0  0  1  0  0  0  0  0999 V2000
  -14.1912   -2.3039  -20.9460 Cl  0  0  0  0  0  0  0  0  0  0  0  0
  -13.3074   -1.3311  -22.0848 C   0  0  0  0  0  0  0  0  0  0  0  0
  -13.9974   -0.4566  -22.8979 C   0  0  0  0  0  0  0  0  0  0  0  0
  -13.2925    0.3836  -23.7399 C   0  0  0  0  0  0  0  0  0  0  0  0
  -11.9065    0.3453  -23.7349 C   0  0  0  0  0  0  0  0  0  0  0  0
  -11.2746    1.2187  -24.5827 O   0  0  0  0  0  0  0  0  0  0  0  0
  -10.0455    0.7006  -25.1181 C   0  0  1  0  0  0  0  0  0  0  0  0
   -9.0548    0.3975  -24.0214 C   0  0  1  0  0  0  0  0  0  0  0  0
  -11.9256   -1.4023  -22.0988 C   0  0  0  0  0  0  0  0  0  0  0  0
  -11.2006   -0.5362  -22.9158 C   0  0  0  0  0  0  0  0  0  0  0  0
   -9.6825   -0.5068  -22.9367 C   0  0  2  0  0  0  0  0  0  0  0  0
   -9.1058   -0.1368  -21.5712 C   0  0  0  0  0  0  0  0  0  0  0  0
   -9.4757    0.8530  -20.9643 O   0  0  0  0  0  0  0  0  0  0  0  0
   -8.0811   -0.9512  -21.0303 N   0  0  0  0  0  0  0  0  0  0  0  0
   -7.8477   -2.2844  -21.4172 C   0  0  0  0  0  0  0  0  0  0  0  0
   -8.6861   -2.8962  -22.0612 O   0  0  0  0  0  0  0  0  0  0  0  0
   -6.5767   -2.9621  -20.9452 C   0  0  1  0  0  0  0  0  0  0  0  0
   -6.8538   -4.2540  -20.1823 C   0  0  1  0  0  0  0  0  0  0  0  0
   -7.2653   -0.3937  -19.9745 C   0  0  0  0  0  0  0  0  0  0  0  0
   -7.5990   -0.5625  -18.6366 C   0  0  0  0  0  0  0  0  0  0  0  0
   -6.9522    0.0244  -17.6194 N   0  0  0  0  0  0  0  0  0  0  0  0
   -5.9517    0.8441  -17.9169 C   0  0  0  0  0  0  0  0  0  0  0  0
   -5.5137    1.1266  -19.2325 C   0  0  0  0  0  0  0  0  0  0  0  0
   -6.1807    0.4718  -20.3079 C   0  0  0  0  0  0  0  0  0  0  0  0
   -4.4240    1.9829  -19.5160 C   0  0  0  0  0  0  0  0  0  0  0  0
   -4.0033    2.1683  -20.7999 C   0  0  0  0  0  0  0  0  0  0  0  0
   -4.6332    1.5175  -21.8524 C   0  0  0  0  0  0  0  0  0  0  0  0
   -5.6959    0.6882  -21.6238 C   0  0  0  0  0  0  0  0  0  0  0  0
  -15.0768   -0.4284  -22.8772 H   0  0  0  0  0  0  0  0  0  0  0  0
  -13.8165    1.0633  -24.3954 H   0  0  0  0  0  0  0  0  0  0  0  0
  -10.2586   -0.2242  -25.6742 H   0  0  0  0  0  0  0  0  0  0  0  0
   -9.6090    1.4458  -25.7994 H   0  0  0  0  0  0  0  0  0  0  0  0
   -8.1839   -0.1150  -24.4560 H   0  0  0  0  0  0  0  0  0  0  0  0
   -8.7314    1.3416  -23.5587 H   0  0  0  0  0  0  0  0  0  0  0  0
  -11.4122   -2.1242  -21.4810 H   0  0  0  0  0  0  0  0  0  0  0  0
   -9.3480   -1.5320  -23.1533 H   0  0  0  0  0  0  0  0  0  0  0  0
   -5.9549   -3.1962  -21.8219 H   0  0  0  0  0  0  0  0  0  0  0  0
   -6.0330   -2.2713  -20.2840 H   0  0  0  0  0  0  0  0  0  0  0  0
   -5.9018   -4.7036  -19.8636 H   0  0  0  0  0  0  0  0  0  0  0  0
   -7.4689   -4.0326  -19.2976 H   0  0  0  0  0  0  0  0  0  0  0  0
   -7.3908   -4.9575  -20.8355 H   0  0  0  0  0  0  0  0  0  0  0  0
   -8.4324   -1.2076  -18.4008 H   0  0  0  0  0  0  0  0  0  0  0  0
   -5.4371    1.3281  -17.0999 H   0  0  0  0  0  0  0  0  0  0  0  0
   -3.9210    2.4944  -18.7087 H   0  0  0  0  0  0  0  0  0  0  0  0
   -3.1719    2.8280  -21.0002 H   0  0  0  0  0  0  0  0  0  0  0  0
   -4.2801    1.6678  -22.8618 H   0  0  0  0  0  0  0  0  0  0  0  0
   -6.1727    0.1913  -22.4558 H   0  0  0  0  0  0  0  0  0  0  0  0
  1  2  1  0
  2  3  2  0
  2  9  1  0
  3  4  1  0
  3 29  1  0
  4  5  2  0
  4 30  1  0
  5  6  1  0
  5 10  1  0
  6  7  1  0
  7  8  1  0
  7 31  1  6
  7 32  1  0
  8 11  1  0
  8 33  1  6
  8 34  1  0
  9 10  2  0
  9 35  1  0
 10 11  1  0
 11 12  1  0
 11 36  1  6
 12 13  2  0
 12 14  1  0
 14 15  1  0
 14 19  1  0
 15 16  2  0
 15 17  1  0
 17 18  1  0
 17 37  1  6
 17 38  1  0
 18 39  1  1
 18 40  1  0
 18 41  1  0
 19 20  2  0
 19 24  1  0
 20 21  1  0
 20 42  1  0
 21 22  2  0
 22 23  1  0
 22 43  1  0
 23 24  2  0
 23 25  1  0
 24 28  1  0
 25 26  2  0
 25 44  1  0
 26 27  1  0
 26 45  1  0
 27 28  2  0
 27 46  1  0
 28 47  1  0
M  END
$$$$
