LIG(A-305)
     RDKit          3D

 34 35  0  0  1  0  0  0  0  0999 V2000
    9.5862    1.0489   21.1081 O   0  0  0  0  0  0  0  0  0  0  0  0
    9.1521   -0.0091   21.5532 C   0  0  0  0  0  0  0  0  0  0  0  0
    9.8761   -0.7581   22.6452 C   0  0  1  0  0  0  0  0  0  0  0  0
   11.3211   -1.0222   22.1871 C   0  0  1  0  0  0  0  0  0  0  0  0
   12.2781   -1.5902   23.2311 C   0  0  1  0  0  0  0  0  0  0  0  0
   13.6991   -1.8254   22.8550 C   0  0  1  0  0  0  0  0  0  0  0  0
   13.3542   -0.7153   23.7879 C   0  0  1  0  0  0  0  0  0  0  0  0
    9.8303    0.0960   23.9131 C   0  0  1  0  0  0  0  0  0  0  0  0
    8.0191   -0.6030   21.1223 N   0  0  0  0  0  0  0  0  0  0  0  0
    7.1740   -0.0870   20.1133 C   0  0  0  0  0  0  0  0  0  0  0  0
    5.9521    0.5141   20.4644 C   0  0  0  0  0  0  0  0  0  0  0  0
    5.5112    0.6522   21.9004 C   0  0  1  0  0  0  0  0  0  0  0  0
    5.1771    1.0361   19.4364 C   0  0  0  0  0  0  0  0  0  0  0  0
    5.6270    0.9540   18.1334 C   0  0  0  0  0  0  0  0  0  0  0  0
    6.7899    0.3919   17.7873 N   0  0  0  0  0  0  0  0  0  0  0  0
    7.5399   -0.1191   18.7663 C   0  0  0  0  0  0  0  0  0  0  0  0
    9.3730   -1.7181   22.8326 H   0  0  0  0  0  0  0  0  0  0  0  0
   11.2804   -1.7344   21.3497 H   0  0  0  0  0  0  0  0  0  0  0  0
   11.7393   -0.0673   21.8361 H   0  0  0  0  0  0  0  0  0  0  0  0
   11.8367   -2.3154   23.9306 H   0  0  0  0  0  0  0  0  0  0  0  0
   14.2268   -2.7145   23.2303 H   0  0  0  0  0  0  0  0  0  0  0  0
   14.0420   -1.5989   21.8346 H   0  0  0  0  0  0  0  0  0  0  0  0
   13.4409    0.3298   23.4559 H   0  0  0  0  0  0  0  0  0  0  0  0
   13.6256   -0.7858   24.8516 H   0  0  0  0  0  0  0  0  0  0  0  0
   10.3523   -0.4276   24.7276 H   0  0  0  0  0  0  0  0  0  0  0  0
   10.3227    1.0611   23.7230 H   0  0  0  0  0  0  0  0  0  0  0  0
    8.7828    0.2692   24.2008 H   0  0  0  0  0  0  0  0  0  0  0  0
    7.7588   -1.4701   21.5473 H   0  0  0  0  0  0  0  0  0  0  0  0
    6.2474    1.2532   22.4544 H   0  0  0  0  0  0  0  0  0  0  0  0
    4.5305    1.1493   21.9366 H   0  0  0  0  0  0  0  0  0  0  0  0
    5.4337   -0.3453   22.3576 H   0  0  0  0  0  0  0  0  0  0  0  0
    4.2282    1.5034   19.6551 H   0  0  0  0  0  0  0  0  0  0  0  0
    5.0060    1.3661   17.3516 H   0  0  0  0  0  0  0  0  0  0  0  0
    8.4795   -0.5818   18.5024 H   0  0  0  0  0  0  0  0  0  0  0  0
  1  2  2  0
  2  3  1  0
  2  9  1  0
  3  4  1  0
  3  8  1  0
  3 17  1  1
  4  5  1  0
  4 18  1  6
  4 19  1  0
  5  6  1  0
  5  7  1  0
  5 20  1  1
  6  7  1  0
  6 21  1  1
  6 22  1  0
  7 23  1  6
  7 24  1  0
  8 25  1  1
  8 26  1  0
  8 27  1  0
  9 10  1  0
  9 28  1  0
 10 11  2  0
 10 16  1  0
 11 12  1  0
 11 13  1  0
 12 29  1  1
 12 30  1  0
 12 31  1  0
 13 14  2  0
 13 32  1  0
 14 15  1  0
 14 33  1  0
 15 16  2  0
 16 34  1  0
M  END
$$$$
