LIG(A-307)
     RDKit          3D

 57 62  0  0  1  0  0  0  0  0999 V2000
   10.8798    3.1174   24.5909 O   0  0  0  0  0  0  0  0  0  0  0  0
   10.4948    2.0067   24.2621 C   0  0  0  0  0  0  0  0  0  0  0  0
    9.2182    1.5970   24.5146 N   0  0  0  0  0  0  0  0  0  0  0  0
    8.2374    2.4763   25.2123 C   0  0  1  0  0  0  0  0  0  0  0  0
    7.4721    1.8634   26.3551 C   0  0  1  0  0  0  0  0  0  0  0  0
    8.5640    2.8380   26.6368 C   0  0  2  0  0  0  0  0  0  0  0  0
    7.4997    3.5258   24.4194 C   0  0  0  0  0  0  0  0  0  0  0  0
    6.6217    4.1637   24.9837 O   0  0  0  0  0  0  0  0  0  0  0  0
    7.8258    3.6997   23.1423 N   0  0  0  0  0  0  0  0  0  0  0  0
    7.1123    4.6456   22.3036 C   0  0  1  0  0  0  0  0  0  0  0  0
   11.3924    1.0499   23.5864 C   0  0  0  0  0  0  0  0  0  0  0  0
   12.7672    1.2901   23.5965 C   0  0  0  0  0  0  0  0  0  0  0  0
   13.6369    0.4023   22.9876 C   0  0  0  0  0  0  0  0  0  0  0  0
   13.1276   -0.7257   22.3755 C   0  0  0  0  0  0  0  0  0  0  0  0
   14.2135   -1.8024   21.5413 Cl  0  0  0  0  0  0  0  0  0  0  0  0
   11.7742   -1.0031   22.3645 C   0  0  0  0  0  0  0  0  0  0  0  0
   10.8941   -0.1021   22.9590 C   0  0  0  0  0  0  0  0  0  0  0  0
    9.3844   -0.2886   22.8724 C   0  0  1  0  0  0  0  0  0  0  0  0
    8.7490    0.2507   24.1814 C   0  0  2  0  0  0  0  0  0  0  0  0
    8.7910    0.5047   21.7048 C   0  0  0  0  0  0  0  0  0  0  0  0
    9.1442    1.6101   21.3354 O   0  0  0  0  0  0  0  0  0  0  0  0
    7.7668   -0.2196   21.1738 N   0  0  0  0  0  0  0  0  0  0  0  0
    7.5931   -1.5257   21.8335 C   0  0  1  0  0  0  0  0  0  0  0  0
    8.9228   -1.7321   22.5592 C   0  0  1  0  0  0  0  0  0  0  0  0
    6.9121    0.2217   20.1115 C   0  0  0  0  0  0  0  0  0  0  0  0
    5.7690    1.0181   20.4195 C   0  0  0  0  0  0  0  0  0  0  0  0
    5.3575    1.3529   21.7379 C   0  0  0  0  0  0  0  0  0  0  0  0
    4.2620    2.1413   21.9574 C   0  0  0  0  0  0  0  0  0  0  0  0
    3.5223    2.6388   20.8890 C   0  0  0  0  0  0  0  0  0  0  0  0
    3.8781    2.3460   19.6041 C   0  0  0  0  0  0  0  0  0  0  0  0
    5.0010    1.5249   19.3317 C   0  0  0  0  0  0  0  0  0  0  0  0
    5.4175    1.1903   18.0134 C   0  0  0  0  0  0  0  0  0  0  0  0
    6.4814    0.4489   17.7322 N   0  0  0  0  0  0  0  0  0  0  0  0
    7.1962   -0.0205   18.7677 C   0  0  0  0  0  0  0  0  0  0  0  0
    6.4238    2.1477   26.5291 H   0  0  0  0  0  0  0  0  0  0  0  0
    7.6089    0.7997   26.5997 H   0  0  0  0  0  0  0  0  0  0  0  0
    8.3202    3.8405   27.0184 H   0  0  0  0  0  0  0  0  0  0  0  0
    9.5053    2.4924   27.0891 H   0  0  0  0  0  0  0  0  0  0  0  0
    8.5776    3.1683   22.7517 H   0  0  0  0  0  0  0  0  0  0  0  0
    7.5394    4.6327   21.2901 H   0  0  0  0  0  0  0  0  0  0  0  0
    6.0496    4.3653   22.2572 H   0  0  0  0  0  0  0  0  0  0  0  0
    7.2068    5.6559   22.7284 H   0  0  0  0  0  0  0  0  0  0  0  0
   13.1546    2.1735   24.0822 H   0  0  0  0  0  0  0  0  0  0  0  0
   14.7006    0.5894   22.9912 H   0  0  0  0  0  0  0  0  0  0  0  0
   11.4039   -1.9059   21.9015 H   0  0  0  0  0  0  0  0  0  0  0  0
    7.6562    0.2774   24.0591 H   0  0  0  0  0  0  0  0  0  0  0  0
    9.0091   -0.4286   25.0066 H   0  0  0  0  0  0  0  0  0  0  0  0
    6.7553   -1.4992   22.5458 H   0  0  0  0  0  0  0  0  0  0  0  0
    7.4203   -2.3211   21.0935 H   0  0  0  0  0  0  0  0  0  0  0  0
    9.6489   -2.2466   21.9126 H   0  0  0  0  0  0  0  0  0  0  0  0
    8.7813   -2.3102   23.4842 H   0  0  0  0  0  0  0  0  0  0  0  0
    5.9194    0.9783   22.5807 H   0  0  0  0  0  0  0  0  0  0  0  0
    3.9684    2.3799   22.9689 H   0  0  0  0  0  0  0  0  0  0  0  0
    2.6602    3.2613   21.0777 H   0  0  0  0  0  0  0  0  0  0  0  0
    3.2972    2.7445   18.7855 H   0  0  0  0  0  0  0  0  0  0  0  0
    4.8298    1.5639   17.1879 H   0  0  0  0  0  0  0  0  0  0  0  0
    8.0570   -0.6326   18.5425 H   0  0  0  0  0  0  0  0  0  0  0  0
  1  2  2  0
  2  3  1  0
  2 11  1  0
  4  3  1  6
  3 19  1  0
  4  5  1  0
  4  6  1  0
  4  7  1  0
  5  6  1  0
  5 35  1  6
  5 36  1  0
  6 37  1  6
  6 38  1  0
  7  8  2  0
  7  9  1  0
  9 10  1  0
  9 39  1  0
 10 40  1  6
 10 41  1  0
 10 42  1  0
 11 12  2  0
 11 17  1  0
 12 13  1  0
 12 43  1  0
 13 14  2  0
 13 44  1  0
 14 15  1  0
 14 16  1  0
 16 17  2  0
 16 45  1  0
 17 18  1  0
 18 19  1  0
 18 20  1  6
 18 24  1  0
 19 46  1  6
 19 47  1  0
 20 21  2  0
 20 22  1  0
 22 23  1  0
 22 25  1  0
 23 24  1  0
 23 48  1  1
 23 49  1  0
 24 50  1  6
 24 51  1  0
 25 26  2  0
 25 34  1  0
 26 27  1  0
 26 31  1  0
 27 28  2  0
 27 52  1  0
 28 29  1  0
 28 53  1  0
 29 30  2  0
 29 54  1  0
 30 31  1  0
 30 55  1  0
 31 32  2  0
 32 33  1  0
 32 56  1  0
 33 34  2  0
 34 57  1  0
M  END
$$$$
