LIG(A-305)
     RDKit          3D

 42 45  0  0  0  0  0  0  0  0999 V2000
    5.3189   -2.6481   20.8724 O   0  0  0  0  0  0  0  0  0  0  0  0
    5.8860   -1.5681   20.8612 C   0  0  0  0  0  0  0  0  0  0  0  0
    5.5819   -0.5671   19.7853 C   0  0  0  0  0  0  0  0  0  0  0  0
    4.6220    0.4669   19.9884 C   0  0  0  0  0  0  0  0  0  0  0  0
    3.9303    0.6890   21.2095 C   0  0  0  0  0  0  0  0  0  0  0  0
    2.9904    1.6731   21.3177 C   0  0  0  0  0  0  0  0  0  0  0  0
    2.6942    2.4881   20.2357 C   0  0  0  0  0  0  0  0  0  0  0  0
    3.3520    2.3370   19.0496 C   0  0  0  0  0  0  0  0  0  0  0  0
    4.3358    1.3269   18.8925 C   0  0  0  0  0  0  0  0  0  0  0  0
    5.0506    1.1178   17.6853 C   0  0  0  0  0  0  0  0  0  0  0  0
    5.9575    0.1588   17.5072 N   0  0  0  0  0  0  0  0  0  0  0  0
    6.1976   -0.6642   18.5371 C   0  0  0  0  0  0  0  0  0  0  0  0
    6.7712   -1.2092   21.8150 N   0  0  0  0  0  0  0  0  0  0  0  0
    7.3264   -2.1262   22.8129 C   0  0  1  0  0  0  0  0  0  0  0  0
    8.8393   -2.1973   22.6696 C   0  0  1  0  0  0  0  0  0  0  0  0
    7.3074    0.1448   21.9309 C   0  0  1  0  0  0  0  0  0  0  0  0
    8.8094    0.2087   21.9806 C   0  0  0  0  0  0  0  0  0  0  0  0
    9.3894    1.1756   21.5004 O   0  0  0  0  0  0  0  0  0  0  0  0
    9.4544   -0.8644   22.5275 N   0  0  0  0  0  0  0  0  0  0  0  0
   10.8295   -0.7995   22.8752 C   0  0  0  0  0  0  0  0  0  0  0  0
   11.7283   -1.5795   22.1590 C   0  0  0  0  0  0  0  0  0  0  0  0
   13.0773   -1.4056   22.3708 C   0  0  0  0  0  0  0  0  0  0  0  0
   14.1961   -2.2537   21.3496 Cl  0  0  0  0  0  0  0  0  0  0  0  0
   11.2887    0.1025   23.8351 C   0  0  0  0  0  0  0  0  0  0  0  0
   12.6528    0.2444   24.0438 C   0  0  0  0  0  0  0  0  0  0  0  0
   13.5586   -0.5076   23.3077 C   0  0  0  0  0  0  0  0  0  0  0  0
    4.1517    0.0693   22.0659 H   0  0  0  0  0  0  0  0  0  0  0  0
    2.4728    1.8181   22.2544 H   0  0  0  0  0  0  0  0  0  0  0  0
    1.9352    3.2502   20.3327 H   0  0  0  0  0  0  0  0  0  0  0  0
    3.1213    2.9925   18.2229 H   0  0  0  0  0  0  0  0  0  0  0  0
    4.8462    1.7794   16.8565 H   0  0  0  0  0  0  0  0  0  0  0  0
    6.9168   -1.4566   18.3910 H   0  0  0  0  0  0  0  0  0  0  0  0
    7.0725   -1.7652   23.8205 H   0  0  0  0  0  0  0  0  0  0  0  0
    6.8989   -3.1288   22.6642 H   0  0  0  0  0  0  0  0  0  0  0  0
    9.2562   -2.6851   23.5631 H   0  0  0  0  0  0  0  0  0  0  0  0
    9.0820   -2.7951   21.7787 H   0  0  0  0  0  0  0  0  0  0  0  0
    6.9654    0.7271   21.0625 H   0  0  0  0  0  0  0  0  0  0  0  0
    6.9118    0.5951   22.8533 H   0  0  0  0  0  0  0  0  0  0  0  0
   11.3744   -2.3108   21.4474 H   0  0  0  0  0  0  0  0  0  0  0  0
   10.5869    0.6866   24.4119 H   0  0  0  0  0  0  0  0  0  0  0  0
   13.0125    0.9443   24.7835 H   0  0  0  0  0  0  0  0  0  0  0  0
   14.6212   -0.3938   23.4635 H   0  0  0  0  0  0  0  0  0  0  0  0
  1  2  2  0
  2  3  1  0
  2 13  1  0
  3  4  2  0
  3 12  1  0
  4  5  1  0
  4  9  1  0
  5  6  2  0
  5 27  1  0
  6  7  1  0
  6 28  1  0
  7  8  2  0
  7 29  1  0
  8  9  1  0
  8 30  1  0
  9 10  2  0
 10 11  1  0
 10 31  1  0
 11 12  2  0
 12 32  1  0
 13 14  1  0
 13 16  1  0
 14 15  1  0
 14 33  1  1
 14 34  1  0
 15 19  1  0
 15 35  1  1
 15 36  1  0
 16 17  1  0
 16 37  1  6
 16 38  1  0
 17 18  2  0
 17 19  1  0
 19 20  1  0
 20 21  2  0
 20 24  1  0
 21 22  1  0
 21 39  1  0
 22 23  1  0
 22 26  2  0
 24 25  2  0
 24 40  1  0
 25 26  1  0
 25 41  1  0
 26 42  1  0
M  END
$$$$
