LIG(A-306)
     RDKit          3D

 38 40  0  0  1  0  0  0  0  0999 V2000
   -5.8043   -3.4903  -21.1544 O   0  0  0  0  0  0  0  0  0  0  0  0
   -6.0962   -3.0436  -22.2599 C   0  0  0  0  0  0  0  0  0  0  0  0
   -5.4621   -3.4328  -23.3600 N   0  0  0  0  0  0  0  0  0  0  0  0
   -5.9732   -3.3486  -24.7313 C   0  0  1  0  0  0  0  0  0  0  0  0
   -6.8106   -2.0912  -24.8924 C   0  0  1  0  0  0  0  0  0  0  0  0
   -7.1961   -2.0298  -22.4183 C   0  0  1  0  0  0  0  0  0  0  0  0
   -7.8660   -1.9846  -23.7944 C   0  0  2  0  0  0  0  0  0  0  0  0
   -8.8761   -3.0348  -23.9270 N   0  0  0  0  0  0  0  0  0  0  0  0
  -10.0727   -2.8030  -24.4732 C   0  0  0  0  0  0  0  0  0  0  0  0
  -10.4252   -1.6871  -24.8379 O   0  0  0  0  0  0  0  0  0  0  0  0
  -10.9572   -4.0379  -24.6557 C   0  0  2  0  0  0  0  0  0  0  0  0
  -10.6415   -4.6742  -26.0239 C   0  0  1  0  0  0  0  0  0  0  0  0
  -11.8441   -5.4071  -26.5541 C   0  0  1  0  0  0  0  0  0  0  0  0
  -13.0052   -4.5632  -26.6336 O   0  0  0  0  0  0  0  0  0  0  0  0
  -12.4097   -3.6376  -24.4716 C   0  0  0  0  0  0  0  0  0  0  0  0
  -12.8564   -2.9983  -23.3157 C   0  0  0  0  0  0  0  0  0  0  0  0
  -14.1937   -2.6849  -23.1784 C   0  0  0  0  0  0  0  0  0  0  0  0
  -14.7429   -1.9635  -21.6878 Cl  0  0  0  0  0  0  0  0  0  0  0  0
  -13.3478   -3.9408  -25.4626 C   0  0  0  0  0  0  0  0  0  0  0  0
  -14.6876   -3.6113  -25.3195 C   0  0  0  0  0  0  0  0  0  0  0  0
  -15.1113   -2.9712  -24.1681 C   0  0  0  0  0  0  0  0  0  0  0  0
   -4.5481   -3.8206  -23.2414 H   0  0  0  0  0  0  0  0  0  0  0  0
   -5.1280   -3.3170  -25.4347 H   0  0  0  0  0  0  0  0  0  0  0  0
   -6.5946   -4.2310  -24.9442 H   0  0  0  0  0  0  0  0  0  0  0  0
   -6.1511   -1.2123  -24.8423 H   0  0  0  0  0  0  0  0  0  0  0  0
   -7.3126   -2.1177  -25.8708 H   0  0  0  0  0  0  0  0  0  0  0  0
   -7.9724   -2.2545  -21.6720 H   0  0  0  0  0  0  0  0  0  0  0  0
   -6.7706   -1.0356  -22.2170 H   0  0  0  0  0  0  0  0  0  0  0  0
   -8.3599   -1.0069  -23.8956 H   0  0  0  0  0  0  0  0  0  0  0  0
   -8.6640   -3.9551  -23.5982 H   0  0  0  0  0  0  0  0  0  0  0  0
  -10.6967   -4.7656  -23.8731 H   0  0  0  0  0  0  0  0  0  0  0  0
  -10.3574   -3.8836  -26.7339 H   0  0  0  0  0  0  0  0  0  0  0  0
   -9.8072   -5.3820  -25.9101 H   0  0  0  0  0  0  0  0  0  0  0  0
  -11.6124   -5.7860  -27.5604 H   0  0  0  0  0  0  0  0  0  0  0  0
  -12.0662   -6.2525  -25.8861 H   0  0  0  0  0  0  0  0  0  0  0  0
  -12.1582   -2.7490  -22.5304 H   0  0  0  0  0  0  0  0  0  0  0  0
  -15.3941   -3.8524  -26.1000 H   0  0  0  0  0  0  0  0  0  0  0  0
  -16.1492   -2.6987  -24.0456 H   0  0  0  0  0  0  0  0  0  0  0  0
  1  2  2  0
  2  3  1  0
  2  6  1  0
  3  4  1  0
  3 22  1  0
  4  5  1  0
  4 23  1  6
  4 24  1  0
  5  7  1  0
  5 25  1  6
  5 26  1  0
  6  7  1  0
  6 27  1  1
  6 28  1  0
  7  8  1  0
  7 29  1  6
  8  9  1  0
  8 30  1  0
  9 10  2  0
  9 11  1  0
 11 12  1  0
 11 15  1  0
 11 31  1  1
 12 13  1  0
 12 32  1  6
 12 33  1  0
 13 14  1  0
 13 34  1  6
 13 35  1  0
 14 19  1  0
 15 16  2  0
 15 19  1  0
 16 17  1  0
 16 36  1  0
 17 18  1  0
 17 21  2  0
 19 20  2  0
 20 21  1  0
 20 37  1  0
 21 38  1  0
M  END
$$$$
