LIG(A-305)
     RDKit          3D

 37 38  0  0  0  0  0  0  0  0999 V2000
    9.3665    0.5695   20.9041 O   0  0  0  0  0  0  0  0  0  0  0  0
    8.6315   -0.1824   21.5391 C   0  0  0  0  0  0  0  0  0  0  0  0
    7.3505   -0.4504   21.2072 N   0  0  0  0  0  0  0  0  0  0  0  0
    6.6795    0.0886   20.0792 C   0  0  0  0  0  0  0  0  0  0  0  0
    7.2314   -0.0185   18.7981 C   0  0  0  0  0  0  0  0  0  0  0  0
    6.6574    0.4975   17.7062 N   0  0  0  0  0  0  0  0  0  0  0  0
    5.4884    1.1365   17.8732 C   0  0  0  0  0  0  0  0  0  0  0  0
    4.8655    1.2916   19.0992 C   0  0  0  0  0  0  0  0  0  0  0  0
    5.4605    0.7736   20.2412 C   0  0  0  0  0  0  0  0  0  0  0  0
    4.8286    0.9806   21.5972 C   0  0  1  0  0  0  0  0  0  0  0  0
    9.1006   -0.8224   22.8321 C   0  0  1  0  0  0  0  0  0  0  0  0
   10.5276   -0.5854   23.0351 N   0  0  1  0  0  0  0  0  0  0  0  0
   10.8996   -0.7274   24.4550 C   0  0  1  0  0  0  0  0  0  0  0  0
   12.3716   -0.4294   24.6760 C   0  0  1  0  0  0  0  0  0  0  0  0
   13.2456   -1.3025   23.7990 C   0  0  1  0  0  0  0  0  0  0  0  0
   12.7985   -1.2325   22.3440 C   0  0  1  0  0  0  0  0  0  0  0  0
   11.3205   -1.5195   22.2181 C   0  0  2  0  0  0  0  0  0  0  0  0
    6.8381   -1.0732   21.7985 H   0  0  0  0  0  0  0  0  0  0  0  0
    8.1681   -0.5442   18.6855 H   0  0  0  0  0  0  0  0  0  0  0  0
    5.0068    1.5533   17.0010 H   0  0  0  0  0  0  0  0  0  0  0  0
    3.9219    1.8126   19.1670 H   0  0  0  0  0  0  0  0  0  0  0  0
    5.5156    1.5513   22.2392 H   0  0  0  0  0  0  0  0  0  0  0  0
    3.8871    1.5377   21.4816 H   0  0  0  0  0  0  0  0  0  0  0  0
    4.6223    0.0036   22.0585 H   0  0  0  0  0  0  0  0  0  0  0  0
    8.5391   -0.3905   23.6737 H   0  0  0  0  0  0  0  0  0  0  0  0
    8.9169   -1.9060   22.7865 H   0  0  0  0  0  0  0  0  0  0  0  0
   10.7402    0.3476   22.7447 H   0  0  0  0  0  0  0  0  0  0  0  0
   10.2992   -0.0268   25.0538 H   0  0  0  0  0  0  0  0  0  0  0  0
   10.6910   -1.7580   24.7781 H   0  0  0  0  0  0  0  0  0  0  0  0
   12.5638    0.6267   24.4358 H   0  0  0  0  0  0  0  0  0  0  0  0
   12.6212   -0.6168   25.7308 H   0  0  0  0  0  0  0  0  0  0  0  0
   14.2877   -0.9580   23.8724 H   0  0  0  0  0  0  0  0  0  0  0  0
   13.1783   -2.3439   24.1466 H   0  0  0  0  0  0  0  0  0  0  0  0
   13.0042   -0.2253   21.9524 H   0  0  0  0  0  0  0  0  0  0  0  0
   13.3605   -1.9753   21.7588 H   0  0  0  0  0  0  0  0  0  0  0  0
   11.0231   -1.4165   21.1641 H   0  0  0  0  0  0  0  0  0  0  0  0
   11.1242   -2.5479   22.5556 H   0  0  0  0  0  0  0  0  0  0  0  0
  1  2  2  0
  2  3  1  0
  2 11  1  0
  3  4  1  0
  3 18  1  0
  4  5  2  0
  4  9  1  0
  5  6  1  0
  5 19  1  0
  6  7  2  0
  7  8  1  0
  7 20  1  0
  8  9  2  0
  8 21  1  0
  9 10  1  0
 10 22  1  1
 10 23  1  0
 10 24  1  0
 11 12  1  0
 11 25  1  1
 11 26  1  0
 12 13  1  0
 12 17  1  0
 12 27  1  6
 13 14  1  0
 13 28  1  1
 13 29  1  0
 14 15  1  0
 14 30  1  6
 14 31  1  0
 15 16  1  0
 15 32  1  6
 15 33  1  0
 16 17  1  0
 16 34  1  6
 16 35  1  0
 17 36  1  6
 17 37  1  0
M  CHG  1  12   1
M  END
$$$$
