LIG(A-305)
     RDKit          3D

 31 32  0  0  0  0  0  0  0  0999 V2000
    6.5703   -5.2266   21.7115 N   0  0  0  0  0  0  0  0  0  0  0  0
    7.7772   -3.6336   20.2844 C   0  0  1  0  0  0  0  0  0  0  0  0
    5.7561   -4.7486   19.6776 O   0  0  0  0  0  0  0  0  0  0  0  0
    6.6292   -4.5946   20.5235 C   0  0  0  0  0  0  0  0  0  0  0  0
    5.5153   -6.1725   22.0656 C   0  0  1  0  0  0  0  0  0  0  0  0
    4.7454   -5.6505   23.2467 C   0  0  1  0  0  0  0  0  0  0  0  0
    6.7555   -4.4675   24.0115 C   0  0  1  0  0  0  0  0  0  0  0  0
    7.5014   -5.0066   22.8204 C   0  0  1  0  0  0  0  0  0  0  0  0
    4.1506   -3.8904   25.9957 C   0  0  0  0  0  0  0  0  0  0  0  0
    4.6537   -2.6384   26.2596 C   0  0  0  0  0  0  0  0  0  0  0  0
    3.6827   -1.6354   26.0127 C   0  0  0  0  0  0  0  0  0  0  0  0
    2.4257   -2.1934   25.8088 C   0  0  0  0  0  0  0  0  0  0  0  0
    5.6845   -5.4175   24.3576 N   0  0  0  0  0  0  0  0  0  0  0  0
    4.1586   -6.4424   25.9977 O   0  0  0  0  0  0  0  0  0  0  0  0
    6.1957   -5.2444   26.7495 O   0  0  0  0  0  0  0  0  0  0  0  0
    5.0756   -5.3524   25.8686 S   0  0  2  0  0  0  0  0  0  0  0  0
    2.4546   -3.9084   25.7558 S   0  0  0  0  0  0  0  0  0  0  0  0
    0.9427   -1.3564   25.6209 Cl  0  0  0  0  0  0  0  0  0  0  0  0
    7.6620   -3.1624   19.2971 H   0  0  0  0  0  0  0  0  0  0  0  0
    7.7737   -2.8573   21.0637 H   0  0  0  0  0  0  0  0  0  0  0  0
    8.7291   -4.1838   20.3192 H   0  0  0  0  0  0  0  0  0  0  0  0
    4.8341   -6.2979   21.2111 H   0  0  0  0  0  0  0  0  0  0  0  0
    5.9649   -7.1432   22.3218 H   0  0  0  0  0  0  0  0  0  0  0  0
    4.2495   -4.7064   22.9771 H   0  0  0  0  0  0  0  0  0  0  0  0
    3.9885   -6.3886   23.5505 H   0  0  0  0  0  0  0  0  0  0  0  0
    7.4439   -4.3575   24.8623 H   0  0  0  0  0  0  0  0  0  0  0  0
    6.3185   -3.4887   23.7644 H   0  0  0  0  0  0  0  0  0  0  0  0
    7.9804   -5.9595   23.0899 H   0  0  0  0  0  0  0  0  0  0  0  0
    8.2711   -4.2832   22.5133 H   0  0  0  0  0  0  0  0  0  0  0  0
    5.6569   -2.4444   26.6092 H   0  0  0  0  0  0  0  0  0  0  0  0
    3.8921   -0.5762   25.9863 H   0  0  0  0  0  0  0  0  0  0  0  0
  1  4  1  0
  1  5  1  0
  1  8  1  0
  2  4  1  0
  2 19  1  6
  2 20  1  0
  2 21  1  0
  3  4  2  0
  5  6  1  0
  5 22  1  6
  5 23  1  0
  6 13  1  0
  6 24  1  6
  6 25  1  0
  7  8  1  0
  7 13  1  0
  7 26  1  1
  7 27  1  0
  8 28  1  1
  8 29  1  0
  9 10  2  0
  9 16  1  0
  9 17  1  0
 10 11  1  0
 10 30  1  0
 11 12  2  0
 11 31  1  0
 12 17  1  0
 12 18  1  0
 16 13  1  6
 14 16  2  0
 15 16  2  0
M  END
$$$$
