LIG(B-307)
     RDKit          3D

 38 40  0  0  0  0  0  0  0  0999 V2000
   41.0158   -1.4436  -22.9371 C   0  0  0  0  0  0  0  0  0  0  0  0
   48.0367    1.5084  -19.4844 C   0  0  0  0  0  0  0  0  0  0  0  0
   46.7220   -1.7850  -20.6239 C   0  0  0  0  0  0  0  0  0  0  0  0
   46.8766   -0.5995  -19.7033 C   0  0  0  0  0  0  0  0  0  0  0  0
   43.6114   -0.8216  -22.0196 C   0  0  1  0  0  0  0  0  0  0  0  0
   45.0837   -0.4566  -21.9784 C   0  0  1  0  0  0  0  0  0  0  0  0
   44.1782   -3.0997  -22.7320 C   0  0  1  0  0  0  0  0  0  0  0  0
   45.6581   -2.7688  -22.5836 C   0  0  1  0  0  0  0  0  0  0  0  0
   42.1259   -2.0937  -23.5132 C   0  0  0  0  0  0  0  0  0  0  0  0
   41.9128   -2.9469  -24.6153 C   0  0  0  0  0  0  0  0  0  0  0  0
   40.6337   -3.1357  -25.1167 C   0  0  0  0  0  0  0  0  0  0  0  0
   39.5267   -2.5018  -24.5625 C   0  0  0  0  0  0  0  0  0  0  0  0
   47.3494   -2.8196  -20.3588 O   0  0  0  0  0  0  0  0  0  0  0  0
   39.7498   -1.6586  -23.4663 C   0  0  0  0  0  0  0  0  0  0  0  0
   46.4425    0.7635  -17.7388 C   0  0  0  0  0  0  0  0  0  0  0  0
   46.2074   -0.4313  -18.5340 C   0  0  0  0  0  0  0  0  0  0  0  0
   47.7498    0.3521  -20.1767 N   0  0  0  0  0  0  0  0  0  0  0  0
   47.3608    1.6518  -18.2808 N   0  0  0  0  0  0  0  0  0  0  0  0
   45.8612   -1.6549  -21.6496 N   0  0  0  0  0  0  0  0  0  0  0  0
   43.4119   -1.8989  -23.0129 N   0  0  0  0  0  0  0  0  0  0  0  0
   48.8217    2.3450  -19.9025 O   0  0  0  0  0  0  0  0  0  0  0  0
   45.8985    1.0276  -16.6618 O   0  0  0  0  0  0  0  0  0  0  0  0
   38.3745   -0.8587  -22.7394 Cl  0  0  0  0  0  0  0  0  0  0  0  0
   37.9293   -2.7585  -25.2160 Cl  0  0  0  0  0  0  0  0  0  0  0  0
   40.4147   -4.2013  -26.4980 Cl  0  0  0  0  0  0  0  0  0  0  0  0
   41.1485   -0.7844  -22.0920 H   0  0  0  0  0  0  0  0  0  0  0  0
   43.2896   -1.1704  -21.0272 H   0  0  0  0  0  0  0  0  0  0  0  0
   43.0204    0.0603  -22.3077 H   0  0  0  0  0  0  0  0  0  0  0  0
   45.3962   -0.0717  -22.9603 H   0  0  0  0  0  0  0  0  0  0  0  0
   45.2517    0.3143  -21.2120 H   0  0  0  0  0  0  0  0  0  0  0  0
   44.0485   -3.8131  -23.5591 H   0  0  0  0  0  0  0  0  0  0  0  0
   43.8133   -3.5511  -21.7976 H   0  0  0  0  0  0  0  0  0  0  0  0
   46.1880   -3.6554  -22.2055 H   0  0  0  0  0  0  0  0  0  0  0  0
   46.0642   -2.4908  -23.5674 H   0  0  0  0  0  0  0  0  0  0  0  0
   42.7494   -3.4557  -25.0710 H   0  0  0  0  0  0  0  0  0  0  0  0
   45.5055   -1.1796  -18.1967 H   0  0  0  0  0  0  0  0  0  0  0  0
   48.1929    0.1985  -21.0584 H   0  0  0  0  0  0  0  0  0  0  0  0
   47.5570    2.4778  -17.7521 H   0  0  0  0  0  0  0  0  0  0  0  0
  1  9  2  0
  1 14  1  0
  1 26  1  0
  2 17  1  0
  2 18  1  0
  2 21  2  0
  3  4  1  0
  3 13  2  0
  3 19  1  0
  4 16  2  0
  4 17  1  0
  5  6  1  0
  5 20  1  0
  5 27  1  1
  5 28  1  0
  6 19  1  0
  6 29  1  6
  6 30  1  0
  7  8  1  0
  7 20  1  0
  7 31  1  6
  7 32  1  0
  8 19  1  0
  8 33  1  1
  8 34  1  0
  9 10  1  0
  9 20  1  0
 10 11  2  0
 10 35  1  0
 11 12  1  0
 11 25  1  0
 12 14  2  0
 12 24  1  0
 14 23  1  0
 15 16  1  0
 15 18  1  0
 15 22  2  0
 16 36  1  0
 17 37  1  0
 18 38  1  0
M  END
$$$$
