LIG(A-307)
     RDKit          3D

 34 36  0  0  0  0  0  0  0  0999 V2000
    9.3575    0.9418   21.1221 O   0  0  0  0  0  0  0  0  0  0  0  0
    8.8369   -0.0991   21.5277 C   0  0  0  0  0  0  0  0  0  0  0  0
    9.4629   -0.9371   22.6258 C   0  0  1  0  0  0  0  0  0  0  0  0
   10.9349   -0.6389   22.7864 C   0  0  0  0  0  0  0  0  0  0  0  0
   11.8725   -1.3082   22.0091 C   0  0  0  0  0  0  0  0  0  0  0  0
   13.1952   -0.9631   22.1210 C   0  0  0  0  0  0  0  0  0  0  0  0
   14.0823   -1.5418   21.2649 F   0  0  0  0  0  0  0  0  0  0  0  0
   13.6599   -0.0103   22.9954 C   0  0  0  0  0  0  0  0  0  0  0  0
   11.3635    0.3334   23.6857 C   0  0  0  0  0  0  0  0  0  0  0  0
   12.7082    0.6103   23.7692 C   0  0  0  0  0  0  0  0  0  0  0  0
   13.1217    1.5247   24.6882 F   0  0  0  0  0  0  0  0  0  0  0  0
    7.6838   -0.5958   21.0388 N   0  0  0  0  0  0  0  0  0  0  0  0
    6.9059   -0.0751   19.9921 C   0  0  0  0  0  0  0  0  0  0  0  0
    5.7615    0.7087   20.3225 C   0  0  0  0  0  0  0  0  0  0  0  0
    5.3179    0.9373   21.6527 C   0  0  0  0  0  0  0  0  0  0  0  0
    4.2427    1.7431   21.9052 C   0  0  0  0  0  0  0  0  0  0  0  0
    3.5564    2.3535   20.8658 C   0  0  0  0  0  0  0  0  0  0  0  0
    3.9385    2.1557   19.5678 C   0  0  0  0  0  0  0  0  0  0  0  0
    5.0451    1.3292   19.2604 C   0  0  0  0  0  0  0  0  0  0  0  0
    5.5073    1.1116   17.9391 C   0  0  0  0  0  0  0  0  0  0  0  0
    6.5675    0.3756   17.6320 N   0  0  0  0  0  0  0  0  0  0  0  0
    7.2368   -0.1984   18.6419 C   0  0  0  0  0  0  0  0  0  0  0  0
    8.9500   -0.7216   23.5748 H   0  0  0  0  0  0  0  0  0  0  0  0
    9.3401   -2.0012   22.3760 H   0  0  0  0  0  0  0  0  0  0  0  0
   11.5645   -2.0876   21.3278 H   0  0  0  0  0  0  0  0  0  0  0  0
   14.7087    0.2359   23.0701 H   0  0  0  0  0  0  0  0  0  0  0  0
   10.6536    0.8604   24.3061 H   0  0  0  0  0  0  0  0  0  0  0  0
    7.3429   -1.4307   21.4709 H   0  0  0  0  0  0  0  0  0  0  0  0
    5.8369    0.4683   22.4754 H   0  0  0  0  0  0  0  0  0  0  0  0
    3.9245    1.9060   22.9244 H   0  0  0  0  0  0  0  0  0  0  0  0
    2.7124    2.9910   21.0838 H   0  0  0  0  0  0  0  0  0  0  0  0
    3.3905    2.6347   18.7700 H   0  0  0  0  0  0  0  0  0  0  0  0
    4.9617    1.5744   17.1301 H   0  0  0  0  0  0  0  0  0  0  0  0
    8.0969   -0.8018   18.3918 H   0  0  0  0  0  0  0  0  0  0  0  0
  1  2  2  0
  2  3  1  0
  2 12  1  0
  3  4  1  0
  3 23  1  1
  3 24  1  0
  4  5  2  0
  4  9  1  0
  5  6  1  0
  5 25  1  0
  6  7  1  0
  6  8  2  0
  8 10  1  0
  8 26  1  0
  9 10  2  0
  9 27  1  0
 10 11  1  0
 12 13  1  0
 12 28  1  0
 13 14  2  0
 13 22  1  0
 14 15  1  0
 14 19  1  0
 15 16  2  0
 15 29  1  0
 16 17  1  0
 16 30  1  0
 17 18  2  0
 17 31  1  0
 18 19  1  0
 18 32  1  0
 19 20  2  0
 20 21  1  0
 20 33  1  0
 21 22  2  0
 22 34  1  0
M  END
$$$$
