LIG(A-306)
     RDKit          3D

 49 52  0  0  1  0  0  0  0  0999 V2000
   10.6815    2.9270   24.5063 O   0  0  0  0  0  0  0  0  0  0  0  0
   10.3497    1.7930   24.2052 C   0  0  0  0  0  0  0  0  0  0  0  0
    9.0608    1.3478   24.3602 N   0  0  0  0  0  0  0  0  0  0  0  0
    8.1247    2.1235   25.1473 C   0  0  1  0  0  0  0  0  0  0  0  0
    7.4954    3.3385   24.4875 C   0  0  0  0  0  0  0  0  0  0  0  0
    6.7953    4.1053   25.1436 O   0  0  0  0  0  0  0  0  0  0  0  0
    7.7194    3.5127   23.1895 N   0  0  0  0  0  0  0  0  0  0  0  0
    7.0522    4.5447   22.4176 C   0  0  1  0  0  0  0  0  0  0  0  0
   11.2778    0.8833   23.5211 C   0  0  0  0  0  0  0  0  0  0  0  0
   12.6238    1.2395   23.4101 C   0  0  0  0  0  0  0  0  0  0  0  0
   13.5069    0.4317   22.7210 C   0  0  0  0  0  0  0  0  0  0  0  0
   13.0461   -0.7403   22.1608 C   0  0  0  0  0  0  0  0  0  0  0  0
   14.1692   -1.7860   21.3357 Cl  0  0  0  0  0  0  0  0  0  0  0  0
   11.7151   -1.1095   22.2368 C   0  0  0  0  0  0  0  0  0  0  0  0
   10.8080   -0.2818   22.9000 C   0  0  0  0  0  0  0  0  0  0  0  0
    9.3261   -0.5950   22.8770 C   0  0  1  0  0  0  0  0  0  0  0  0
    8.6690   -0.0483   24.1430 C   0  0  2  0  0  0  0  0  0  0  0  0
    8.6999    0.1470   21.6941 C   0  0  0  0  0  0  0  0  0  0  0  0
    9.0857    1.2621   21.3402 O   0  0  0  0  0  0  0  0  0  0  0  0
    7.6760   -0.4981   21.0980 N   0  0  0  0  0  0  0  0  0  0  0  0
    6.9109   -0.0421   20.0061 C   0  0  0  0  0  0  0  0  0  0  0  0
    5.7658    0.7737   20.2702 C   0  0  0  0  0  0  0  0  0  0  0  0
    5.3067    1.0794   21.5753 C   0  0  0  0  0  0  0  0  0  0  0  0
    4.2186    1.8772   21.7184 C   0  0  0  0  0  0  0  0  0  0  0  0
    3.8036    2.1780   22.9774 F   0  0  0  0  0  0  0  0  0  0  0  0
    3.5235    2.4142   20.6615 C   0  0  0  0  0  0  0  0  0  0  0  0
    3.9425    2.1495   19.3914 C   0  0  0  0  0  0  0  0  0  0  0  0
    5.0666    1.3217   19.1573 C   0  0  0  0  0  0  0  0  0  0  0  0
    5.5477    1.0169   17.8612 C   0  0  0  0  0  0  0  0  0  0  0  0
    6.6088    0.2621   17.6171 N   0  0  0  0  0  0  0  0  0  0  0  0
    7.2609   -0.2479   18.6710 C   0  0  0  0  0  0  0  0  0  0  0  0
    7.3078    1.4503   25.4464 H   0  0  0  0  0  0  0  0  0  0  0  0
    8.6578    2.4738   26.0434 H   0  0  0  0  0  0  0  0  0  0  0  0
    8.3712    2.9109   22.7278 H   0  0  0  0  0  0  0  0  0  0  0  0
    7.3924    4.4993   21.3726 H   0  0  0  0  0  0  0  0  0  0  0  0
    5.9644    4.3857   22.4561 H   0  0  0  0  0  0  0  0  0  0  0  0
    7.2936    5.5315   22.8392 H   0  0  0  0  0  0  0  0  0  0  0  0
   12.9762    2.1528   23.8662 H   0  0  0  0  0  0  0  0  0  0  0  0
   14.5445    0.7145   22.6223 H   0  0  0  0  0  0  0  0  0  0  0  0
   11.3803   -2.0320   21.7861 H   0  0  0  0  0  0  0  0  0  0  0  0
    9.1564   -1.6782   22.7884 H   0  0  0  0  0  0  0  0  0  0  0  0
    7.5756   -0.1056   24.0377 H   0  0  0  0  0  0  0  0  0  0  0  0
    8.9864   -0.6522   25.0059 H   0  0  0  0  0  0  0  0  0  0  0  0
    7.4346   -1.3943   21.4702 H   0  0  0  0  0  0  0  0  0  0  0  0
    5.8148    0.6838   22.4423 H   0  0  0  0  0  0  0  0  0  0  0  0
    2.6581    3.0368   20.8344 H   0  0  0  0  0  0  0  0  0  0  0  0
    3.4105    2.5763   18.5541 H   0  0  0  0  0  0  0  0  0  0  0  0
    5.0147    1.4266   17.0160 H   0  0  0  0  0  0  0  0  0  0  0  0
    8.1239   -0.8658   18.4717 H   0  0  0  0  0  0  0  0  0  0  0  0
  1  2  2  0
  2  3  1  0
  2  9  1  0
  3  4  1  0
  3 17  1  0
  4  5  1  0
  4 32  1  1
  4 33  1  0
  5  6  2  0
  5  7  1  0
  7  8  1  0
  7 34  1  0
  8 35  1  6
  8 36  1  0
  8 37  1  0
  9 10  2  0
  9 15  1  0
 10 11  1  0
 10 38  1  0
 11 12  2  0
 11 39  1  0
 12 13  1  0
 12 14  1  0
 14 15  2  0
 14 40  1  0
 15 16  1  0
 16 17  1  0
 16 18  1  0
 16 41  1  6
 17 42  1  6
 17 43  1  0
 18 19  2  0
 18 20  1  0
 20 21  1  0
 20 44  1  0
 21 22  2  0
 21 31  1  0
 22 23  1  0
 22 28  1  0
 23 24  2  0
 23 45  1  0
 24 25  1  0
 24 26  1  0
 26 27  2  0
 26 46  1  0
 27 28  1  0
 27 47  1  0
 28 29  2  0
 29 30  1  0
 29 48  1  0
 30 31  2  0
 31 49  1  0
M  END
$$$$
