LIG(A-305)
     RDKit          3D

 41 45  0  0  1  0  0  0  0  0999 V2000
    9.1310    1.3491   21.1033 O   0  0  0  0  0  0  0  0  0  0  0  0
    8.7310    0.3082   21.5894 C   0  0  0  0  0  0  0  0  0  0  0  0
    9.2451   -0.3538   22.8873 C   0  0  2  0  0  0  0  0  0  0  0  0
    8.6423    0.3913   24.0964 C   0  0  1  0  0  0  0  0  0  0  0  0
    9.4644    1.6033   24.4802 C   0  0  1  0  0  0  0  0  0  0  0  0
   10.8144    1.2382   24.7821 O   0  0  0  0  0  0  0  0  0  0  0  0
   10.7671   -0.2769   22.8792 C   0  0  0  0  0  0  0  0  0  0  0  0
   11.4462    0.5681   23.7660 C   0  0  0  0  0  0  0  0  0  0  0  0
   12.8142    0.7560   23.6929 C   0  0  0  0  0  0  0  0  0  0  0  0
   13.5421    0.0599   22.7488 C   0  0  0  0  0  0  0  0  0  0  0  0
   11.5209   -0.9900   21.9481 C   0  0  0  0  0  0  0  0  0  0  0  0
   12.8949   -0.8251   21.9159 C   0  0  0  0  0  0  0  0  0  0  0  0
   13.8417   -1.8333   20.8599 Cl  0  0  0  0  0  0  0  0  0  0  0  0
    7.7848   -0.5548   21.0545 N   0  0  0  0  0  0  0  0  0  0  0  0
    7.7388   -1.7638   21.7586 C   0  0  0  0  0  0  0  0  0  0  0  0
    6.9507   -2.6737   21.5517 O   0  0  0  0  0  0  0  0  0  0  0  0
    8.6589   -1.6828   22.7485 N   0  0  0  0  0  0  0  0  0  0  0  0
    6.8887   -0.1888   19.9886 C   0  0  0  0  0  0  0  0  0  0  0  0
    5.7158    0.5603   20.2967 C   0  0  0  0  0  0  0  0  0  0  0  0
    5.1800    0.7084   21.6018 C   0  0  0  0  0  0  0  0  0  0  0  0
    4.0261    1.4085   21.8138 C   0  0  0  0  0  0  0  0  0  0  0  0
    3.3540    1.9985   20.7549 C   0  0  0  0  0  0  0  0  0  0  0  0
    3.8388    1.9044   19.4808 C   0  0  0  0  0  0  0  0  0  0  0  0
    5.0287    1.1823   19.2167 C   0  0  0  0  0  0  0  0  0  0  0  0
    5.5696    1.0252   17.9147 C   0  0  0  0  0  0  0  0  0  0  0  0
    6.6665    0.3331   17.6396 N   0  0  0  0  0  0  0  0  0  0  0  0
    7.2986   -0.2569   18.6626 C   0  0  0  0  0  0  0  0  0  0  0  0
    7.6238    0.7191   23.8404 H   0  0  0  0  0  0  0  0  0  0  0  0
    8.6014   -0.2966   24.9537 H   0  0  0  0  0  0  0  0  0  0  0  0
    9.4642    2.3167   23.6430 H   0  0  0  0  0  0  0  0  0  0  0  0
    9.0142    2.0766   25.3652 H   0  0  0  0  0  0  0  0  0  0  0  0
   13.3080    1.4401   24.3672 H   0  0  0  0  0  0  0  0  0  0  0  0
   14.6086    0.2080   22.6644 H   0  0  0  0  0  0  0  0  0  0  0  0
   11.0371   -1.6652   21.2579 H   0  0  0  0  0  0  0  0  0  0  0  0
    8.9121   -2.4577   23.3276 H   0  0  0  0  0  0  0  0  0  0  0  0
    5.6922    0.2608   22.4407 H   0  0  0  0  0  0  0  0  0  0  0  0
    3.6340    1.5031   22.8157 H   0  0  0  0  0  0  0  0  0  0  0  0
    2.4369    2.5386   20.9388 H   0  0  0  0  0  0  0  0  0  0  0  0
    3.3113    2.3838   18.6696 H   0  0  0  0  0  0  0  0  0  0  0  0
    5.0538    1.5006   17.0935 H   0  0  0  0  0  0  0  0  0  0  0  0
    8.1896   -0.8257   18.4412 H   0  0  0  0  0  0  0  0  0  0  0  0
  1  2  2  0
  2  3  1  0
  2 14  1  0
  3  4  1  0
  3  7  1  0
  3 17  1  6
  4  5  1  0
  4 28  1  6
  4 29  1  0
  5  6  1  0
  5 30  1  6
  5 31  1  0
  6  8  1  0
  7  8  2  0
  7 11  1  0
  8  9  1  0
  9 10  2  0
  9 32  1  0
 10 12  1  0
 10 33  1  0
 11 12  2  0
 11 34  1  0
 12 13  1  0
 14 15  1  0
 14 18  1  0
 15 16  2  0
 15 17  1  0
 17 35  1  0
 18 19  2  0
 18 27  1  0
 19 20  1  0
 19 24  1  0
 20 21  2  0
 20 36  1  0
 21 22  1  0
 21 37  1  0
 22 23  2  0
 22 38  1  0
 23 24  1  0
 23 39  1  0
 24 25  2  0
 25 26  1  0
 25 40  1  0
 26 27  2  0
 27 41  1  0
M  END
$$$$
