LIG(A-306)
     RDKit          3D

 51 54  0  0  1  0  0  0  0  0999 V2000
   13.9814   -1.5681   21.4830 Cl  0  0  0  0  0  0  0  0  0  0  0  0
   12.7792   -0.7643   22.4469 C   0  0  0  0  0  0  0  0  0  0  0  0
   11.4543   -1.1384   22.3239 C   0  0  0  0  0  0  0  0  0  0  0  0
   13.1751    0.2038   23.3389 C   0  0  0  0  0  0  0  0  0  0  0  0
   12.2300    0.7796   24.1649 C   0  0  0  0  0  0  0  0  0  0  0  0
   10.8870    0.4175   24.0849 C   0  0  0  0  0  0  0  0  0  0  0  0
    9.9349    1.0323   25.0829 C   0  0  1  0  0  0  0  0  0  0  0  0
    8.5320    0.8472   24.6928 N   0  0  0  0  0  0  0  0  0  0  0  0
    7.4238    1.9750   24.9668 S   0  0  1  0  0  0  0  0  0  0  0  0
    6.1619    1.4369   24.5708 O   0  0  0  0  0  0  0  0  0  0  0  0
    7.6117    2.4070   26.3138 O   0  0  0  0  0  0  0  0  0  0  0  0
    7.8867    3.2221   24.0318 N   0  0  0  0  0  0  0  0  0  0  0  0
    7.2267    3.5010   22.7518 C   0  0  1  0  0  0  0  0  0  0  0  0
    6.4615    4.7879   22.8018 C   0  0  1  0  0  0  0  0  0  0  0  0
   10.4882   -0.5306   23.1289 C   0  0  0  0  0  0  0  0  0  0  0  0
    9.0172   -0.8478   22.9248 C   0  0  1  0  0  0  0  0  0  0  0  0
    8.2062   -0.4919   24.1698 C   0  0  1  0  0  0  0  0  0  0  0  0
    8.5062   -0.0858   21.6978 C   0  0  0  0  0  0  0  0  0  0  0  0
    9.0761    0.9163   21.2658 O   0  0  0  0  0  0  0  0  0  0  0  0
    7.3733   -0.5930   21.1498 N   0  0  0  0  0  0  0  0  0  0  0  0
    6.6562   -0.1001   20.0348 C   0  0  0  0  0  0  0  0  0  0  0  0
    5.4871    0.6948   20.2657 C   0  0  0  0  0  0  0  0  0  0  0  0
    4.9230    0.9197   21.5507 C   0  0  0  0  0  0  0  0  0  0  0  0
    3.8289    1.7236   21.7087 C   0  0  0  0  0  0  0  0  0  0  0  0
    3.2449    2.3475   20.6127 C   0  0  0  0  0  0  0  0  0  0  0  0
    3.7379    2.1496   19.3547 C   0  0  0  0  0  0  0  0  0  0  0  0
    4.8641    1.3137   19.1437 C   0  0  0  0  0  0  0  0  0  0  0  0
    5.4221    1.0698   17.8617 C   0  0  0  0  0  0  0  0  0  0  0  0
    6.4932    0.3129   17.6458 N   0  0  0  0  0  0  0  0  0  0  0  0
    7.0833   -0.2450   18.7128 C   0  0  0  0  0  0  0  0  0  0  0  0
   11.1678   -1.8962   21.6097 H   0  0  0  0  0  0  0  0  0  0  0  0
   14.2095    0.5093   23.3930 H   0  0  0  0  0  0  0  0  0  0  0  0
   12.5372    1.5235   24.8852 H   0  0  0  0  0  0  0  0  0  0  0  0
   10.0958    0.5610   26.0637 H   0  0  0  0  0  0  0  0  0  0  0  0
   10.1439    2.1099   25.1553 H   0  0  0  0  0  0  0  0  0  0  0  0
    8.2080    4.0285   24.5283 H   0  0  0  0  0  0  0  0  0  0  0  0
    7.9899    3.5686   21.9625 H   0  0  0  0  0  0  0  0  0  0  0  0
    6.5320    2.6800   22.5207 H   0  0  0  0  0  0  0  0  0  0  0  0
    5.9801    4.9668   21.8291 H   0  0  0  0  0  0  0  0  0  0  0  0
    5.6923    4.7268   23.5858 H   0  0  0  0  0  0  0  0  0  0  0  0
    7.1503    5.6153   23.0276 H   0  0  0  0  0  0  0  0  0  0  0  0
    8.9124   -1.9262   22.7349 H   0  0  0  0  0  0  0  0  0  0  0  0
    8.4156   -1.2365   24.9519 H   0  0  0  0  0  0  0  0  0  0  0  0
    7.1367   -0.5199   23.9139 H   0  0  0  0  0  0  0  0  0  0  0  0
    7.0011   -1.4123   21.5860 H   0  0  0  0  0  0  0  0  0  0  0  0
    5.3658    0.4482   22.4156 H   0  0  0  0  0  0  0  0  0  0  0  0
    3.4144    1.8753   22.6944 H   0  0  0  0  0  0  0  0  0  0  0  0
    2.3928    2.9952   20.7574 H   0  0  0  0  0  0  0  0  0  0  0  0
    3.2660    2.6340   18.5127 H   0  0  0  0  0  0  0  0  0  0  0  0
    4.9463    1.5282   17.0074 H   0  0  0  0  0  0  0  0  0  0  0  0
    7.9574   -0.8543   18.5362 H   0  0  0  0  0  0  0  0  0  0  0  0
  1  2  1  0
  2  3  2  0
  2  4  1  0
  3 15  1  0
  3 31  1  0
  4  5  2  0
  4 32  1  0
  5  6  1  0
  5 33  1  0
  6  7  1  0
  6 15  2  0
  7  8  1  0
  7 34  1  1
  7 35  1  0
  8  9  1  0
  8 17  1  0
  9 10  2  0
  9 11  2  0
  9 12  1  6
 12 13  1  0
 12 36  1  0
 13 14  1  0
 13 37  1  6
 13 38  1  0
 14 39  1  6
 14 40  1  0
 14 41  1  0
 15 16  1  0
 16 17  1  0
 16 18  1  0
 16 42  1  6
 17 43  1  1
 17 44  1  0
 18 19  2  0
 18 20  1  0
 20 21  1  0
 20 45  1  0
 21 22  2  0
 21 30  1  0
 22 23  1  0
 22 27  1  0
 23 24  2  0
 23 46  1  0
 24 25  1  0
 24 47  1  0
 25 26  2  0
 25 48  1  0
 26 27  1  0
 26 49  1  0
 27 28  2  0
 28 29  1  0
 28 50  1  0
 29 30  2  0
 30 51  1  0
M  END
$$$$
