LIG(A-305)
     RDKit          3D

 28 29  0  0  0  0  0  0  0  0999 V2000
   11.0292  -25.7991    3.3729 C   0  0  0  0  0  0  0  0  0  0  0  0
   12.1622  -25.0090    3.4569 C   0  0  0  0  0  0  0  0  0  0  0  0
   12.4502  -24.0901    2.4518 C   0  0  0  0  0  0  0  0  0  0  0  0
   11.5991  -23.9561    1.3768 C   0  0  0  0  0  0  0  0  0  0  0  0
   10.4541  -24.7501    1.3009 C   0  0  0  0  0  0  0  0  0  0  0  0
    9.4820  -24.6372    0.0840 C   0  0  1  0  0  0  0  0  0  0  0  0
    8.0850  -23.2612   -1.2130 C   0  0  1  0  0  0  0  0  0  0  0  0
    7.2660  -21.9633   -1.2510 C   0  0  0  0  0  0  0  0  0  0  0  0
    7.6169  -20.7713   -1.8811 C   0  0  0  0  0  0  0  0  0  0  0  0
    6.5869  -19.8683   -1.6621 C   0  0  0  0  0  0  0  0  0  0  0  0
    5.5980  -20.5423   -0.8880 C   0  0  0  0  0  0  0  0  0  0  0  0
   10.1732  -25.6711    2.2960 C   0  0  0  0  0  0  0  0  0  0  0  0
   10.7333  -26.6950    4.3370 F   0  0  0  0  0  0  0  0  0  0  0  0
    9.0080  -23.2562   -0.1441 N   0  0  2  0  0  0  0  0  0  0  0  0
    6.0330  -21.7783   -0.6730 O   0  0  0  0  0  0  0  0  0  0  0  0
   12.8248  -25.1057    4.3042 H   0  0  0  0  0  0  0  0  0  0  0  0
   13.3406  -23.4822    2.5147 H   0  0  0  0  0  0  0  0  0  0  0  0
   11.8168  -23.2408    0.5975 H   0  0  0  0  0  0  0  0  0  0  0  0
   10.0076  -24.9819   -0.8187 H   0  0  0  0  0  0  0  0  0  0  0  0
    8.6103  -25.2819    0.2694 H   0  0  0  0  0  0  0  0  0  0  0  0
    7.4001  -24.1133   -1.0906 H   0  0  0  0  0  0  0  0  0  0  0  0
    8.6345  -23.3657   -2.1601 H   0  0  0  0  0  0  0  0  0  0  0  0
    8.5236  -20.5847   -2.4374 H   0  0  0  0  0  0  0  0  0  0  0  0
    6.5427  -18.8475   -2.0120 H   0  0  0  0  0  0  0  0  0  0  0  0
    4.6651  -20.1241   -0.5399 H   0  0  0  0  0  0  0  0  0  0  0  0
    9.2884  -26.2870    2.2305 H   0  0  0  0  0  0  0  0  0  0  0  0
    9.7839  -22.6683   -0.3730 H   0  0  0  0  0  0  0  0  0  0  0  0
    8.5625  -22.9132    0.6829 H   0  0  0  0  0  0  0  0  0  0  0  0
  1  2  2  0
  1 12  1  0
  1 13  1  0
  2  3  1  0
  2 16  1  0
  3  4  2  0
  3 17  1  0
  4  5  1  0
  4 18  1  0
  5  6  1  0
  5 12  2  0
  6 14  1  0
  6 19  1  6
  6 20  1  0
  7  8  1  0
  7 14  1  0
  7 21  1  1
  7 22  1  0
  8  9  2  0
  8 15  1  0
  9 10  1  0
  9 23  1  0
 10 11  2  0
 10 24  1  0
 11 15  1  0
 11 25  1  0
 12 26  1  0
 14 27  1  6
 14 28  1  0
M  CHG  1  14   1
M  END
$$$$
