LIG(A-306)
     RDKit          3D

 50 52  0  0  0  0  0  0  0  0999 V2000
   14.1100   -1.6446   21.5481 Cl  0  0  0  0  0  0  0  0  0  0  0  0
   12.8045   -0.9427   22.4626 C   0  0  0  0  0  0  0  0  0  0  0  0
   13.0852    0.0144   23.4202 C   0  0  0  0  0  0  0  0  0  0  0  0
   12.0381    0.5308   24.1690 C   0  0  0  0  0  0  0  0  0  0  0  0
   10.7351    0.1159   23.9279 C   0  0  0  0  0  0  0  0  0  0  0  0
   11.5145   -1.3696   22.2187 C   0  0  0  0  0  0  0  0  0  0  0  0
   10.4582   -0.8214   22.9392 C   0  0  0  0  0  0  0  0  0  0  0  0
    9.0361   -1.1823   22.5858 C   0  0  1  0  0  0  0  0  0  0  0  0
    8.4746   -0.2718   21.5118 C   0  0  0  0  0  0  0  0  0  0  0  0
    9.0119    0.7956   21.2126 O   0  0  0  0  0  0  0  0  0  0  0  0
    7.3526   -0.7265   20.9230 N   0  0  0  0  0  0  0  0  0  0  0  0
    6.6199   -0.1052   19.8930 C   0  0  0  0  0  0  0  0  0  0  0  0
    6.8910   -0.2606   18.5320 C   0  0  0  0  0  0  0  0  0  0  0  0
    6.2313    0.3582   17.5439 N   0  0  0  0  0  0  0  0  0  0  0  0
    5.2463    1.1820   17.8826 C   0  0  0  0  0  0  0  0  0  0  0  0
    4.8609    1.4570   19.2179 C   0  0  0  0  0  0  0  0  0  0  0  0
    5.5697    0.7917   20.2602 C   0  0  0  0  0  0  0  0  0  0  0  0
    5.2262    1.0898   21.6033 C   0  0  0  0  0  0  0  0  0  0  0  0
    4.2390    1.9843   21.8975 C   0  0  0  0  0  0  0  0  0  0  0  0
    3.8406    2.3787   19.5559 C   0  0  0  0  0  0  0  0  0  0  0  0
    3.5473    2.6248   20.8753 C   0  0  0  0  0  0  0  0  0  0  0  0
    2.5802    3.4914   21.3287 O   0  0  0  0  0  0  0  0  0  0  0  0
    1.9219    4.3404   20.3742 C   0  0  1  0  0  0  0  0  0  0  0  0
    0.9528    5.2479   21.1073 C   0  0  1  0  0  0  0  0  0  0  0  0
    1.4400    6.4182   21.8635 N   0  0  2  0  0  0  0  0  0  0  0  0
    2.7326    6.9374   21.4058 C   0  0  1  0  0  0  0  0  0  0  0  0
    1.4759    6.1529   23.3022 C   0  0  1  0  0  0  0  0  0  0  0  0
   14.0981    0.3526   23.5817 H   0  0  0  0  0  0  0  0  0  0  0  0
   12.2369    1.2581   24.9422 H   0  0  0  0  0  0  0  0  0  0  0  0
    9.9272    0.5262   24.5156 H   0  0  0  0  0  0  0  0  0  0  0  0
   11.3260   -2.1261   21.4713 H   0  0  0  0  0  0  0  0  0  0  0  0
    9.0121   -2.2199   22.2213 H   0  0  0  0  0  0  0  0  0  0  0  0
    8.4122   -1.0959   23.4877 H   0  0  0  0  0  0  0  0  0  0  0  0
    7.0005   -1.6022   21.2534 H   0  0  0  0  0  0  0  0  0  0  0  0
    7.6924   -0.9296   18.2553 H   0  0  0  0  0  0  0  0  0  0  0  0
    4.7041    1.6742   17.0888 H   0  0  0  0  0  0  0  0  0  0  0  0
    5.7554    0.6001   22.4074 H   0  0  0  0  0  0  0  0  0  0  0  0
    3.9940    2.1957   22.9279 H   0  0  0  0  0  0  0  0  0  0  0  0
    3.2932    2.8883   18.7768 H   0  0  0  0  0  0  0  0  0  0  0  0
    2.6695    4.9497   19.8451 H   0  0  0  0  0  0  0  0  0  0  0  0
    1.3721    3.7229   19.6487 H   0  0  0  0  0  0  0  0  0  0  0  0
    0.2502    5.6318   20.3530 H   0  0  0  0  0  0  0  0  0  0  0  0
    0.4106    4.6142   21.8245 H   0  0  0  0  0  0  0  0  0  0  0  0
    0.7711    7.1479   21.7220 H   0  0  0  0  0  0  0  0  0  0  0  0
    3.0188    7.8036   22.0204 H   0  0  0  0  0  0  0  0  0  0  0  0
    3.4972    6.1523   21.5004 H   0  0  0  0  0  0  0  0  0  0  0  0
    2.6519    7.2456   20.3529 H   0  0  0  0  0  0  0  0  0  0  0  0
    1.8430    7.0448   23.8311 H   0  0  0  0  0  0  0  0  0  0  0  0
    0.4632    5.9083   23.6552 H   0  0  0  0  0  0  0  0  0  0  0  0
    2.1485    5.3057   23.5021 H   0  0  0  0  0  0  0  0  0  0  0  0
  1  2  1  0
  2  3  2  0
  2  6  1  0
  3  4  1  0
  3 28  1  0
  4  5  2  0
  4 29  1  0
  5  7  1  0
  5 30  1  0
  6  7  2  0
  6 31  1  0
  7  8  1  0
  8  9  1  0
  8 32  1  6
  8 33  1  0
  9 10  2  0
  9 11  1  0
 11 12  1  0
 11 34  1  0
 12 13  2  0
 12 17  1  0
 13 14  1  0
 13 35  1  0
 14 15  2  0
 15 16  1  0
 15 36  1  0
 16 17  2  0
 16 20  1  0
 17 18  1  0
 18 19  2  0
 18 37  1  0
 19 21  1  0
 19 38  1  0
 20 21  2  0
 20 39  1  0
 21 22  1  0
 22 23  1  0
 23 24  1  0
 23 40  1  6
 23 41  1  0
 24 25  1  0
 24 42  1  6
 24 43  1  0
 25 26  1  0
 25 27  1  0
 25 44  1  1
 26 45  1  1
 26 46  1  0
 26 47  1  0
 27 48  1  1
 27 49  1  0
 27 50  1  0
M  CHG  1  25   1
M  END
$$$$
