LIG(A-305)
     RDKit          3D

 63 65  0  0  1  0  0  0  0  0999 V2000
    9.3824    1.4247   21.1063 O   0  0  0  0  0  0  0  0  0  0  0  0
    8.3234    1.4157   21.7285 C   0  0  0  0  0  0  0  0  0  0  0  0
    7.2794    0.3168   21.4766 C   0  0  1  0  0  0  0  0  0  0  0  0
    6.5892    0.4908   20.1337 C   0  0  0  0  0  0  0  0  0  0  0  0
    5.3812    1.1648   20.0399 C   0  0  0  0  0  0  0  0  0  0  0  0
    4.8550    1.4828   18.8019 C   0  0  0  0  0  0  0  0  0  0  0  0
    5.5609    1.0967   17.6769 C   0  0  0  0  0  0  0  0  0  0  0  0
    6.7188    0.4287   17.7277 N   0  0  0  0  0  0  0  0  0  0  0  0
    7.2040    0.1367   18.9397 C   0  0  0  0  0  0  0  0  0  0  0  0
    7.7573   -1.0612   21.7616 N   0  0  0  0  0  0  0  0  0  0  0  0
    8.9314   -1.2383   22.5705 C   0  0  0  0  0  0  0  0  0  0  0  0
   10.2924   -1.2873   22.1533 C   0  0  0  0  0  0  0  0  0  0  0  0
   11.0015   -1.3783   23.2862 C   0  0  0  0  0  0  0  0  0  0  0  0
   12.5056   -1.4274   23.4820 C   0  0  1  0  0  0  0  0  0  0  0  0
   12.8697   -2.4744   24.5339 C   0  0  1  0  0  0  0  0  0  0  0  0
   13.1864   -1.7795   22.1589 C   0  0  1  0  0  0  0  0  0  0  0  0
   13.0087   -0.0684   23.9658 C   0  0  1  0  0  0  0  0  0  0  0  0
   10.1887   -1.4023   24.3613 O   0  0  0  0  0  0  0  0  0  0  0  0
    8.8386   -1.3142   23.9205 N   0  0  0  0  0  0  0  0  0  0  0  0
    7.0302   -2.1892   21.3588 C   0  0  0  0  0  0  0  0  0  0  0  0
    5.8192   -2.0952   21.2279 O   0  0  0  0  0  0  0  0  0  0  0  0
    7.7591   -3.4893   21.1387 C   0  0  1  0  0  0  0  0  0  0  0  0
    7.0909   -4.3673   20.0878 C   0  0  1  0  0  0  0  0  0  0  0  0
    7.9636    2.3588   22.6305 N   0  0  0  0  0  0  0  0  0  0  0  0
    8.7487    3.4528   23.0663 C   0  0  0  0  0  0  0  0  0  0  0  0
    8.4727    4.7448   22.6213 C   0  0  0  0  0  0  0  0  0  0  0  0
    9.2538    5.8027   23.0522 C   0  0  0  0  0  0  0  0  0  0  0  0
   10.3039    5.5737   23.9270 C   0  0  0  0  0  0  0  0  0  0  0  0
   10.9921    6.6977   24.3019 O   0  0  0  0  0  0  0  0  0  0  0  0
   12.0802    6.5707   25.2237 C   0  0  1  0  0  0  0  0  0  0  0  0
   10.5870    4.2897   24.3680 C   0  0  0  0  0  0  0  0  0  0  0  0
    9.8098    3.2117   23.9602 C   0  0  0  0  0  0  0  0  0  0  0  0
   10.0699    1.8448   24.5442 C   0  0  1  0  0  0  0  0  0  0  0  0
    6.4929    0.5065   22.2219 H   0  0  0  0  0  0  0  0  0  0  0  0
    4.8491    1.4426   20.9377 H   0  0  0  0  0  0  0  0  0  0  0  0
    3.9203    2.0169   18.7158 H   0  0  0  0  0  0  0  0  0  0  0  0
    5.1563    1.3475   16.7074 H   0  0  0  0  0  0  0  0  0  0  0  0
    8.1340   -0.4097   18.9931 H   0  0  0  0  0  0  0  0  0  0  0  0
   10.6708   -1.2576   21.1422 H   0  0  0  0  0  0  0  0  0  0  0  0
   13.9616   -2.4987   24.6652 H   0  0  0  0  0  0  0  0  0  0  0  0
   12.3913   -2.2151   25.4900 H   0  0  0  0  0  0  0  0  0  0  0  0
   12.5180   -3.4631   24.2041 H   0  0  0  0  0  0  0  0  0  0  0  0
   14.2761   -1.8141   22.3045 H   0  0  0  0  0  0  0  0  0  0  0  0
   12.8313   -2.7618   21.8140 H   0  0  0  0  0  0  0  0  0  0  0  0
   12.9413   -1.0159   21.4060 H   0  0  0  0  0  0  0  0  0  0  0  0
   14.0989   -0.1092   24.1062 H   0  0  0  0  0  0  0  0  0  0  0  0
   12.7639    0.7005   23.2183 H   0  0  0  0  0  0  0  0  0  0  0  0
   12.5252    0.1824   24.9216 H   0  0  0  0  0  0  0  0  0  0  0  0
    8.7851   -3.2663   20.8105 H   0  0  0  0  0  0  0  0  0  0  0  0
    7.7902   -4.0407   22.0900 H   0  0  0  0  0  0  0  0  0  0  0  0
    7.6638   -5.2988   19.9695 H   0  0  0  0  0  0  0  0  0  0  0  0
    6.0657   -4.6055   20.4074 H   0  0  0  0  0  0  0  0  0  0  0  0
    7.0605   -3.8312   19.1278 H   0  0  0  0  0  0  0  0  0  0  0  0
    7.0506    2.2738   23.0293 H   0  0  0  0  0  0  0  0  0  0  0  0
    7.6514    4.9196   21.9421 H   0  0  0  0  0  0  0  0  0  0  0  0
    9.0455    6.8048   22.7074 H   0  0  0  0  0  0  0  0  0  0  0  0
   12.5177    7.5618   25.4142 H   0  0  0  0  0  0  0  0  0  0  0  0
   11.7121    6.1446   26.1688 H   0  0  0  0  0  0  0  0  0  0  0  0
   12.8469    5.9076   24.7967 H   0  0  0  0  0  0  0  0  0  0  0  0
   11.4200    4.1256   25.0355 H   0  0  0  0  0  0  0  0  0  0  0  0
   10.2671    1.1298   23.7318 H   0  0  0  0  0  0  0  0  0  0  0  0
   10.9430    1.8914   25.2115 H   0  0  0  0  0  0  0  0  0  0  0  0
    9.1889    1.5166   25.1154 H   0  0  0  0  0  0  0  0  0  0  0  0
  1  2  2  0
  2  3  1  0
  2 24  1  0
  3  4  1  0
  3 10  1  0
  3 34  1  1
  4  5  2  0
  4  9  1  0
  5  6  1  0
  5 35  1  0
  6  7  2  0
  6 36  1  0
  7  8  1  0
  7 37  1  0
  8  9  2  0
  9 38  1  0
 10 11  1  0
 10 20  1  0
 11 12  1  0
 11 19  2  0
 12 13  2  0
 12 39  1  0
 14 13  1  6
 13 18  1  0
 14 15  1  0
 14 16  1  0
 14 17  1  0
 15 40  1  1
 15 41  1  0
 15 42  1  0
 16 43  1  1
 16 44  1  0
 16 45  1  0
 17 46  1  1
 17 47  1  0
 17 48  1  0
 18 19  1  0
 20 21  2  0
 20 22  1  0
 22 23  1  0
 22 49  1  6
 22 50  1  0
 23 51  1  6
 23 52  1  0
 23 53  1  0
 24 25  1  0
 24 54  1  0
 25 26  2  0
 25 32  1  0
 26 27  1  0
 26 55  1  0
 27 28  2  0
 27 56  1  0
 28 29  1  0
 28 31  1  0
 29 30  1  0
 30 57  1  1
 30 58  1  0
 30 59  1  0
 31 32  2  0
 31 60  1  0
 32 33  1  0
 33 61  1  6
 33 62  1  0
 33 63  1  0
M  END
$$$$
