LIG(A-305)
     RDKit          3D

 56 59  0  0  0  0  0  0  0  0999 V2000
    9.3382    0.8779   21.1042 O   0  0  0  0  0  0  0  0  0  0  0  0
    8.9861   -0.2291   21.4872 C   0  0  0  0  0  0  0  0  0  0  0  0
    7.9650   -1.0270   20.6983 C   0  0  1  0  0  0  0  0  0  0  0  0
    7.1200   -0.1750   19.7724 C   0  0  0  0  0  0  0  0  0  0  0  0
    6.0201    0.5761   20.2734 C   0  0  0  0  0  0  0  0  0  0  0  0
    5.6842    0.6412   21.6504 C   0  0  0  0  0  0  0  0  0  0  0  0
    4.5893    1.3383   22.0735 C   0  0  0  0  0  0  0  0  0  0  0  0
    3.7783    2.0013   21.1625 C   0  0  0  0  0  0  0  0  0  0  0  0
    4.0722    1.9872   19.8295 C   0  0  0  0  0  0  0  0  0  0  0  0
    5.1971    1.2761   19.3494 C   0  0  0  0  0  0  0  0  0  0  0  0
    5.5430    1.1950   17.9804 C   0  0  0  0  0  0  0  0  0  0  0  0
    6.5839    0.5119   17.5164 N   0  0  0  0  0  0  0  0  0  0  0  0
    7.3369   -0.1481   18.4073 C   0  0  0  0  0  0  0  0  0  0  0  0
    9.4642   -0.7811   22.6272 N   0  0  0  0  0  0  0  0  0  0  0  0
   10.3333   -0.0151   23.5011 C   0  0  1  0  0  0  0  0  0  0  0  0
   11.7413   -0.0222   22.9920 C   0  0  0  0  0  0  0  0  0  0  0  0
   12.8974    1.0927   23.5799 S   0  0  0  0  0  0  0  0  0  0  0  0
   14.1173    0.4355   22.5618 C   0  0  0  0  0  0  0  0  0  0  0  0
   13.6801   -0.5925   21.8019 C   0  0  0  0  0  0  0  0  0  0  0  0
   12.3131   -0.8883   22.0170 C   0  0  0  0  0  0  0  0  0  0  0  0
    9.1441   -2.1460   23.0713 C   0  0  1  0  0  0  0  0  0  0  0  0
    7.9922   -2.1399   24.0704 C   0  0  1  0  0  0  0  0  0  0  0  0
    7.9582   -3.1279   25.2564 C   0  0  1  0  0  0  0  0  0  0  0  0
    6.7191   -4.0238   25.2425 C   0  0  1  0  0  0  0  0  0  0  0  0
    6.6321   -4.9137   26.4846 C   0  0  1  0  0  0  0  0  0  0  0  0
    7.8911   -5.7528   26.6665 C   0  0  1  0  0  0  0  0  0  0  0  0
    9.1401   -4.8739   26.6604 C   0  0  1  0  0  0  0  0  0  0  0  0
    9.2031   -3.9979   25.4064 C   0  0  1  0  0  0  0  0  0  0  0  0
    8.4987   -1.7751   20.0937 H   0  0  0  0  0  0  0  0  0  0  0  0
    7.2976   -1.5377   21.4082 H   0  0  0  0  0  0  0  0  0  0  0  0
    6.3034    0.1321   22.3741 H   0  0  0  0  0  0  0  0  0  0  0  0
    4.3519    1.3743   23.1265 H   0  0  0  0  0  0  0  0  0  0  0  0
    2.9060    2.5337   21.5120 H   0  0  0  0  0  0  0  0  0  0  0  0
    3.4411    2.5231   19.1360 H   0  0  0  0  0  0  0  0  0  0  0  0
    4.9233    1.7204   17.2688 H   0  0  0  0  0  0  0  0  0  0  0  0
    8.1816   -0.7040   18.0281 H   0  0  0  0  0  0  0  0  0  0  0  0
    9.9725    1.0229   23.5486 H   0  0  0  0  0  0  0  0  0  0  0  0
   10.3119   -0.4571   24.5081 H   0  0  0  0  0  0  0  0  0  0  0  0
   15.1309    0.8072   22.5327 H   0  0  0  0  0  0  0  0  0  0  0  0
   14.3063   -1.1303   21.1055 H   0  0  0  0  0  0  0  0  0  0  0  0
   11.7723   -1.6715   21.5066 H   0  0  0  0  0  0  0  0  0  0  0  0
    8.8594   -2.7509   22.1978 H   0  0  0  0  0  0  0  0  0  0  0  0
   10.0319   -2.5864   23.5487 H   0  0  0  0  0  0  0  0  0  0  0  0
    7.9613   -1.1298   24.5047 H   0  0  0  0  0  0  0  0  0  0  0  0
    7.0748   -2.3176   23.4900 H   0  0  0  0  0  0  0  0  0  0  0  0
    7.8917   -2.5157   26.1680 H   0  0  0  0  0  0  0  0  0  0  0  0
    5.8228   -3.3874   25.1998 H   0  0  0  0  0  0  0  0  0  0  0  0
    6.7563   -4.6652   24.3497 H   0  0  0  0  0  0  0  0  0  0  0  0
    6.4974   -4.2763   27.3710 H   0  0  0  0  0  0  0  0  0  0  0  0
    5.7675   -5.5859   26.3815 H   0  0  0  0  0  0  0  0  0  0  0  0
    7.8318   -6.2869   27.6263 H   0  0  0  0  0  0  0  0  0  0  0  0
    7.9597   -6.4812   25.8452 H   0  0  0  0  0  0  0  0  0  0  0  0
    9.1255   -4.2257   27.5490 H   0  0  0  0  0  0  0  0  0  0  0  0
   10.0310   -5.5185   26.6914 H   0  0  0  0  0  0  0  0  0  0  0  0
    9.2915   -4.6475   24.5230 H   0  0  0  0  0  0  0  0  0  0  0  0
   10.0867   -3.3461   25.4720 H   0  0  0  0  0  0  0  0  0  0  0  0
  1  2  2  0
  2  3  1  0
  2 14  1  0
  3  4  1  0
  3 29  1  6
  3 30  1  0
  4  5  2  0
  4 13  1  0
  5  6  1  0
  5 10  1  0
  6  7  2  0
  6 31  1  0
  7  8  1  0
  7 32  1  0
  8  9  2  0
  8 33  1  0
  9 10  1  0
  9 34  1  0
 10 11  2  0
 11 12  1  0
 11 35  1  0
 12 13  2  0
 13 36  1  0
 14 15  1  0
 14 21  1  0
 15 16  1  0
 15 37  1  1
 15 38  1  0
 16 17  1  0
 16 20  2  0
 17 18  1  0
 18 19  2  0
 18 39  1  0
 19 20  1  0
 19 40  1  0
 20 41  1  0
 21 22  1  0
 21 42  1  6
 21 43  1  0
 22 23  1  0
 22 44  1  1
 22 45  1  0
 23 24  1  0
 23 28  1  0
 23 46  1  1
 24 25  1  0
 24 47  1  6
 24 48  1  0
 25 26  1  0
 25 49  1  1
 25 50  1  0
 26 27  1  0
 26 51  1  1
 26 52  1  0
 27 28  1  0
 27 53  1  1
 27 54  1  0
 28 55  1  6
 28 56  1  0
M  END
$$$$
