LIG(A-305)
     RDKit          3D

 35 36  0  0  1  0  0  0  0  0999 V2000
   13.8710   -1.8960   21.2101 Cl  0  0  0  0  0  0  0  0  0  0  0  0
   12.7299   -1.0480   22.2151 C   0  0  0  0  0  0  0  0  0  0  0  0
   13.1929   -0.1719   23.1760 C   0  0  0  0  0  0  0  0  0  0  0  0
   12.2788    0.4271   24.0270 C   0  0  0  0  0  0  0  0  0  0  0  0
   10.9229    0.1650   23.8900 C   0  0  0  0  0  0  0  0  0  0  0  0
   11.3839   -1.3071   22.0591 C   0  0  0  0  0  0  0  0  0  0  0  0
   10.4629   -0.6901   22.8981 C   0  0  0  0  0  0  0  0  0  0  0  0
    8.9769   -0.9371   22.6831 C   0  0  1  0  0  0  0  0  0  0  0  0
    8.1579   -0.9011   23.9710 C   0  0  1  0  0  0  0  0  0  0  0  0
    6.7999   -1.2192   23.6901 O   0  0  0  0  0  0  0  0  0  0  0  0
    8.4579    0.0368   21.6250 C   0  0  0  0  0  0  0  0  0  0  0  0
    8.7838    1.2148   21.6069 O   0  0  0  0  0  0  0  0  0  0  0  0
    7.7049   -0.5263   20.6630 N   0  0  0  0  0  0  0  0  0  0  0  0
    6.7099   -0.0614   19.7810 C   0  0  0  0  0  0  0  0  0  0  0  0
    5.6589    0.7806   20.1879 C   0  0  0  0  0  0  0  0  0  0  0  0
    5.2638    0.9287   21.6349 C   0  0  1  0  0  0  0  0  0  0  0  0
    6.9849   -0.1664   18.4200 C   0  0  0  0  0  0  0  0  0  0  0  0
    6.3229    0.5045   17.4770 N   0  0  0  0  0  0  0  0  0  0  0  0
    5.3059    1.2775   17.8729 C   0  0  0  0  0  0  0  0  0  0  0  0
    4.9448    1.4385   19.1959 C   0  0  0  0  0  0  0  0  0  0  0  0
   14.2479    0.0424   23.2627 H   0  0  0  0  0  0  0  0  0  0  0  0
   12.6222    1.0997   24.7991 H   0  0  0  0  0  0  0  0  0  0  0  0
   10.2180    0.6313   24.5624 H   0  0  0  0  0  0  0  0  0  0  0  0
   11.0475   -1.9856   21.2892 H   0  0  0  0  0  0  0  0  0  0  0  0
    8.8751   -1.9496   22.2653 H   0  0  0  0  0  0  0  0  0  0  0  0
    8.5646   -1.6346   24.6827 H   0  0  0  0  0  0  0  0  0  0  0  0
    8.2133    0.1057   24.4105 H   0  0  0  0  0  0  0  0  0  0  0  0
    6.7441   -2.1085   23.3608 H   0  0  0  0  0  0  0  0  0  0  0  0
    7.8958   -1.5011   20.5472 H   0  0  0  0  0  0  0  0  0  0  0  0
    6.1190    1.3106   22.2118 H   0  0  0  0  0  0  0  0  0  0  0  0
    4.4234    1.6338   21.7151 H   0  0  0  0  0  0  0  0  0  0  0  0
    4.9604   -0.0504   22.0340 H   0  0  0  0  0  0  0  0  0  0  0  0
    7.7796   -0.8291   18.1106 H   0  0  0  0  0  0  0  0  0  0  0  0
    4.7378    1.8026   17.1193 H   0  0  0  0  0  0  0  0  0  0  0  0
    4.1111    2.0732   19.4576 H   0  0  0  0  0  0  0  0  0  0  0  0
  1  2  1  0
  2  3  2  0
  2  6  1  0
  3  4  1  0
  3 21  1  0
  4  5  2  0
  4 22  1  0
  5  7  1  0
  5 23  1  0
  6  7  2  0
  6 24  1  0
  7  8  1  0
  8  9  1  0
  8 11  1  0
  8 25  1  6
  9 10  1  0
  9 26  1  1
  9 27  1  0
 10 28  1  0
 11 12  2  0
 11 13  1  0
 13 14  1  0
 13 29  1  0
 14 15  2  0
 14 17  1  0
 15 16  1  0
 15 20  1  0
 16 30  1  1
 16 31  1  0
 16 32  1  0
 17 18  2  0
 17 33  1  0
 18 19  1  0
 19 20  2  0
 19 34  1  0
 20 35  1  0
M  END
$$$$
