LIG(A-305)
     RDKit          3D

 32 33  0  0  0  0  0  0  0  0999 V2000
    5.9790   -4.1286   19.6395 O   0  0  0  0  0  0  0  0  0  0  0  0
    6.6760   -3.1326   19.7155 C   0  0  0  0  0  0  0  0  0  0  0  0
    7.2640   -2.5196   18.4624 C   0  0  1  0  0  0  0  0  0  0  0  0
    7.0491   -2.6066   20.8984 N   0  0  0  0  0  0  0  0  0  0  0  0
    7.8612   -1.3956   21.0523 C   0  0  1  0  0  0  0  0  0  0  0  0
    9.1672   -1.7566   21.7222 C   0  0  1  0  0  0  0  0  0  0  0  0
    8.9183   -2.3676   23.0423 N   0  0  1  0  0  0  0  0  0  0  0  0
    8.0923   -3.5825   22.8924 C   0  0  1  0  0  0  0  0  0  0  0  0
    6.7772   -3.2655   22.1805 C   0  0  1  0  0  0  0  0  0  0  0  0
   10.1774   -2.6816   23.7222 C   0  0  1  0  0  0  0  0  0  0  0  0
   11.1674   -1.5546   23.7081 C   0  0  0  0  0  0  0  0  0  0  0  0
   11.0835   -0.2956   24.8471 S   0  0  0  0  0  0  0  0  0  0  0  0
   12.4195    0.5094   24.1559 C   0  0  0  0  0  0  0  0  0  0  0  0
   12.9364   -0.1466   23.0959 C   0  0  0  0  0  0  0  0  0  0  0  0
   12.2423   -1.3476   22.7980 C   0  0  0  0  0  0  0  0  0  0  0  0
    6.9542   -3.1076   17.5858 H   0  0  0  0  0  0  0  0  0  0  0  0
    6.9036   -1.4858   18.3562 H   0  0  0  0  0  0  0  0  0  0  0  0
    8.3616   -2.5197   18.5345 H   0  0  0  0  0  0  0  0  0  0  0  0
    8.0631   -0.9595   20.0629 H   0  0  0  0  0  0  0  0  0  0  0  0
    7.3194   -0.6653   21.6713 H   0  0  0  0  0  0  0  0  0  0  0  0
    9.7134   -2.4716   21.0894 H   0  0  0  0  0  0  0  0  0  0  0  0
    9.7712   -0.8465   21.8525 H   0  0  0  0  0  0  0  0  0  0  0  0
    8.4121   -1.7111   23.6016 H   0  0  0  0  0  0  0  0  0  0  0  0
    8.6497   -4.3264   22.3041 H   0  0  0  0  0  0  0  0  0  0  0  0
    7.8721   -3.9932   23.8888 H   0  0  0  0  0  0  0  0  0  0  0  0
    6.1722   -2.5985   22.8122 H   0  0  0  0  0  0  0  0  0  0  0  0
    6.2256   -4.2000   22.0003 H   0  0  0  0  0  0  0  0  0  0  0  0
    9.9532   -2.9338   24.7691 H   0  0  0  0  0  0  0  0  0  0  0  0
   10.6332   -3.5506   23.2251 H   0  0  0  0  0  0  0  0  0  0  0  0
   12.8103    1.4452   24.5275 H   0  0  0  0  0  0  0  0  0  0  0  0
   13.7885    0.2055   22.5337 H   0  0  0  0  0  0  0  0  0  0  0  0
   12.4957   -2.0160   21.9884 H   0  0  0  0  0  0  0  0  0  0  0  0
  1  2  2  0
  2  3  1  0
  2  4  1  0
  3 16  1  6
  3 17  1  0
  3 18  1  0
  4  5  1  0
  4  9  1  0
  5  6  1  0
  5 19  1  6
  5 20  1  0
  6  7  1  0
  6 21  1  6
  6 22  1  0
  7  8  1  0
  7 10  1  0
  7 23  1  1
  8  9  1  0
  8 24  1  6
  8 25  1  0
  9 26  1  1
  9 27  1  0
 10 11  1  0
 10 28  1  1
 10 29  1  0
 11 12  1  0
 11 15  2  0
 12 13  1  0
 13 14  2  0
 13 30  1  0
 14 15  1  0
 14 31  1  0
 15 32  1  0
M  CHG  1   7   1
M  END
$$$$
