LIG(A-307)
     RDKit          3D

 54 57  0  0  0  0  0  0  0  0999 V2000
    9.0392    1.4647   21.1782 O   0  0  0  0  0  0  0  0  0  0  0  0
    8.8495    0.3851   21.7296 C   0  0  0  0  0  0  0  0  0  0  0  0
    7.9383   -0.6514   21.0991 C   0  0  1  0  0  0  0  0  0  0  0  0
    7.0614   -0.0660   20.0123 C   0  0  0  0  0  0  0  0  0  0  0  0
    5.9539    0.7681   20.3382 C   0  0  0  0  0  0  0  0  0  0  0  0
    5.5728    1.0757   21.6712 C   0  0  0  0  0  0  0  0  0  0  0  0
    4.5105    1.8991   21.9271 C   0  0  0  0  0  0  0  0  0  0  0  0
    3.7794    2.4534   20.8861 C   0  0  0  0  0  0  0  0  0  0  0  0
    4.1103    2.1922   19.5880 C   0  0  0  0  0  0  0  0  0  0  0  0
    5.1972    1.3409   19.2793 C   0  0  0  0  0  0  0  0  0  0  0  0
    5.5951    1.0351   17.9525 C   0  0  0  0  0  0  0  0  0  0  0  0
    6.6226    0.2459   17.6511 N   0  0  0  0  0  0  0  0  0  0  0  0
    7.3229   -0.2782   18.6706 C   0  0  0  0  0  0  0  0  0  0  0  0
    9.3970    0.0902   22.9438 N   0  0  0  0  0  0  0  0  0  0  0  0
    9.2241   -1.1438   23.5895 C   0  0  0  0  0  0  0  0  0  0  0  0
    8.4130   -1.2649   24.7096 C   0  0  0  0  0  0  0  0  0  0  0  0
    8.3861   -2.4919   25.3429 C   0  0  0  0  0  0  0  0  0  0  0  0
    9.9517   -2.1494   23.0806 N   0  0  0  0  0  0  0  0  0  0  0  0
    9.9045   -3.3395   23.7034 C   0  0  0  0  0  0  0  0  0  0  0  0
    9.1349   -3.5605   24.8444 C   0  0  0  0  0  0  0  0  0  0  0  0
    9.1092   -4.8123   25.4564 N   0  0  0  0  0  0  0  0  0  0  0  0
    8.7103   -4.9530   26.8463 C   0  0  1  0  0  0  0  0  0  0  0  0
    9.8831   -5.9270   24.9278 C   0  0  1  0  0  0  0  0  0  0  0  0
   10.1876    1.1259   23.6239 C   0  0  1  0  0  0  0  0  0  0  0  0
   11.6265    1.1798   23.1710 C   0  0  0  0  0  0  0  0  0  0  0  0
   12.2309    0.0596   22.6064 C   0  0  0  0  0  0  0  0  0  0  0  0
   13.5076    0.1602   22.0860 C   0  0  0  0  0  0  0  0  0  0  0  0
   14.1529   -1.1758   21.1659 Cl  0  0  0  0  0  0  0  0  0  0  0  0
   14.2548    1.3089   22.2204 C   0  0  0  0  0  0  0  0  0  0  0  0
   13.6616    2.4219   22.7964 C   0  0  0  0  0  0  0  0  0  0  0  0
   12.3520    2.3617   23.2480 C   0  0  0  0  0  0  0  0  0  0  0  0
    8.5587   -1.4475   20.6616 H   0  0  0  0  0  0  0  0  0  0  0  0
    7.2935   -1.0774   21.8818 H   0  0  0  0  0  0  0  0  0  0  0  0
    6.1295    0.6537   22.4949 H   0  0  0  0  0  0  0  0  0  0  0  0
    4.2386    2.1198   22.9487 H   0  0  0  0  0  0  0  0  0  0  0  0
    2.9406    3.0975   21.1051 H   0  0  0  0  0  0  0  0  0  0  0  0
    3.5372    2.6394   18.7892 H   0  0  0  0  0  0  0  0  0  0  0  0
    5.0310    1.4683   17.1398 H   0  0  0  0  0  0  0  0  0  0  0  0
    8.1576   -0.9170   18.4228 H   0  0  0  0  0  0  0  0  0  0  0  0
    7.8267   -0.4332   25.0712 H   0  0  0  0  0  0  0  0  0  0  0  0
    7.7827   -2.6260   26.2285 H   0  0  0  0  0  0  0  0  0  0  0  0
   10.4859   -4.1572   23.3038 H   0  0  0  0  0  0  0  0  0  0  0  0
    8.7569   -6.0130   27.1362 H   0  0  0  0  0  0  0  0  0  0  0  0
    9.3900   -4.3684   27.4837 H   0  0  0  0  0  0  0  0  0  0  0  0
    7.6818   -4.5836   26.9716 H   0  0  0  0  0  0  0  0  0  0  0  0
    9.7219   -6.8161   25.5551 H   0  0  0  0  0  0  0  0  0  0  0  0
    9.5607   -6.1415   23.8982 H   0  0  0  0  0  0  0  0  0  0  0  0
   10.9515   -5.6653   24.9303 H   0  0  0  0  0  0  0  0  0  0  0  0
    9.7237    2.1035   23.4266 H   0  0  0  0  0  0  0  0  0  0  0  0
   10.1703    0.9232   24.7050 H   0  0  0  0  0  0  0  0  0  0  0  0
   11.7049   -0.8832   22.5754 H   0  0  0  0  0  0  0  0  0  0  0  0
   15.2807    1.3422   21.8846 H   0  0  0  0  0  0  0  0  0  0  0  0
   14.2221    3.3399   22.8936 H   0  0  0  0  0  0  0  0  0  0  0  0
   11.8905    3.2448   23.6648 H   0  0  0  0  0  0  0  0  0  0  0  0
  1  2  2  0
  2  3  1  0
  2 14  1  0
  3  4  1  0
  3 32  1  6
  3 33  1  0
  4  5  2  0
  4 13  1  0
  5  6  1  0
  5 10  1  0
  6  7  2  0
  6 34  1  0
  7  8  1  0
  7 35  1  0
  8  9  2  0
  8 36  1  0
  9 10  1  0
  9 37  1  0
 10 11  2  0
 11 12  1  0
 11 38  1  0
 12 13  2  0
 13 39  1  0
 14 15  1  0
 14 24  1  0
 15 16  2  0
 15 18  1  0
 16 17  1  0
 16 40  1  0
 17 20  2  0
 17 41  1  0
 18 19  2  0
 19 20  1  0
 19 42  1  0
 20 21  1  0
 21 22  1  0
 21 23  1  0
 22 43  1  1
 22 44  1  0
 22 45  1  0
 23 46  1  1
 23 47  1  0
 23 48  1  0
 24 25  1  0
 24 49  1  1
 24 50  1  0
 25 26  2  0
 25 31  1  0
 26 27  1  0
 26 51  1  0
 27 28  1  0
 27 29  2  0
 29 30  1  0
 29 52  1  0
 30 31  2  0
 30 53  1  0
 31 54  1  0
M  END
$$$$
