LIG(A-305)
     RDKit          3D

 31 32  0  0  0  0  0  0  0  0999 V2000
    9.8996    0.3579   24.2572 C   0  0  0  0  0  0  0  0  0  0  0  0
    6.4980    0.4407   17.3885 N   0  0  0  0  0  0  0  0  0  0  0  0
   12.1444   -0.6363   23.0230 C   0  0  0  0  0  0  0  0  0  0  0  0
    5.3702    0.7799   19.9395 C   0  0  0  0  0  0  0  0  0  0  0  0
   12.2825    0.3857   23.9450 C   0  0  0  0  0  0  0  0  0  0  0  0
    4.7944    1.0269   21.3106 C   0  0  1  0  0  0  0  0  0  0  0  0
    9.7624   -0.6322   23.2932 C   0  0  0  0  0  0  0  0  0  0  0  0
    4.8662    1.4428   18.8265 C   0  0  0  0  0  0  0  0  0  0  0  0
    8.1453   -0.3422   21.4624 C   0  0  0  0  0  0  0  0  0  0  0  0
    7.0282   -0.7482   20.8365 N   0  0  0  0  0  0  0  0  0  0  0  0
    8.8753    0.5568   21.0423 O   0  0  0  0  0  0  0  0  0  0  0  0
    6.4592   -0.0822   19.7345 C   0  0  0  0  0  0  0  0  0  0  0  0
    8.4044   -1.0411   22.7814 C   0  0  2  0  0  0  0  0  0  0  0  0
    6.9801   -0.2183   18.4464 C   0  0  0  0  0  0  0  0  0  0  0  0
   11.1476    0.8718   24.5751 C   0  0  0  0  0  0  0  0  0  0  0  0
   10.9054   -1.1403   22.6932 C   0  0  0  0  0  0  0  0  0  0  0  0
    5.4561    1.2548   17.5935 C   0  0  0  0  0  0  0  0  0  0  0  0
   13.8413   -1.5304   22.1969 I   0  0  0  0  0  0  0  0  0  0  0  0
    9.0233    0.7322   24.7656 H   0  0  0  0  0  0  0  0  0  0  0  0
   13.2557    0.7969   24.1695 H   0  0  0  0  0  0  0  0  0  0  0  0
    3.9807    1.7638   21.2397 H   0  0  0  0  0  0  0  0  0  0  0  0
    4.4005    0.0841   21.7181 H   0  0  0  0  0  0  0  0  0  0  0  0
    5.5817    1.4130   21.9747 H   0  0  0  0  0  0  0  0  0  0  0  0
    4.0166    2.1022   18.9266 H   0  0  0  0  0  0  0  0  0  0  0  0
    6.5737   -1.5727   21.1734 H   0  0  0  0  0  0  0  0  0  0  0  0
    7.6329   -0.7520   23.5101 H   0  0  0  0  0  0  0  0  0  0  0  0
    8.3786   -2.1307   22.6330 H   0  0  0  0  0  0  0  0  0  0  0  0
    7.8134   -0.8889   18.2977 H   0  0  0  0  0  0  0  0  0  0  0  0
   11.2356    1.6530   25.3156 H   0  0  0  0  0  0  0  0  0  0  0  0
   10.8236   -1.9336   21.9649 H   0  0  0  0  0  0  0  0  0  0  0  0
    5.0550    1.7939   16.7479 H   0  0  0  0  0  0  0  0  0  0  0  0
  1  7  1  0
  1 15  2  0
  1 19  1  0
  2 14  1  0
  2 17  2  0
  3  5  2  0
  3 16  1  0
  3 18  1  0
  4  6  1  0
  4  8  2  0
  4 12  1  0
  5 15  1  0
  5 20  1  0
  6 21  1  6
  6 22  1  0
  6 23  1  0
  7 13  1  0
  7 16  2  0
  8 17  1  0
  8 24  1  0
  9 10  1  0
  9 11  2  0
  9 13  1  0
 10 12  1  0
 10 25  1  0
 12 14  2  0
 13 26  1  1
 13 27  1  0
 14 28  1  0
 15 29  1  0
 16 30  1  0
 17 31  1  0
M  END
$$$$
