LIG(A-305)
     RDKit          3D

 42 45  0  0  1  0  0  0  0  0999 V2000
    9.3816    1.0798   21.1151 O   0  0  0  0  0  0  0  0  0  0  0  0
    8.8606    0.0779   21.5791 C   0  0  0  0  0  0  0  0  0  0  0  0
    9.4206   -0.5961   22.8451 C   0  0  1  0  0  0  0  0  0  0  0  0
   10.9296   -0.3491   22.8241 C   0  0  0  0  0  0  0  0  0  0  0  0
   11.7526   -1.0172   21.9191 C   0  0  0  0  0  0  0  0  0  0  0  0
   13.1086   -0.7563   21.9210 C   0  0  0  0  0  0  0  0  0  0  0  0
   14.1415   -1.6894   20.8830 Cl  0  0  0  0  0  0  0  0  0  0  0  0
   13.6766    0.1597   22.7789 C   0  0  0  0  0  0  0  0  0  0  0  0
   12.8767    0.8208   23.6889 C   0  0  0  0  0  0  0  0  0  0  0  0
   11.5177    0.5609   23.7070 C   0  0  0  0  0  0  0  0  0  0  0  0
   10.7938    1.2439   24.6460 O   0  0  0  0  0  0  0  0  0  0  0  0
    9.6677    0.4970   25.1391 C   0  0  1  0  0  0  0  0  0  0  0  0
    8.7087    0.1170   24.0271 C   0  0  2  0  0  0  0  0  0  0  0  0
    9.1795   -2.1171   22.9212 C   0  0  1  0  0  0  0  0  0  0  0  0
    7.8895   -0.5541   20.9182 N   0  0  0  0  0  0  0  0  0  0  0  0
    6.9645   -0.1731   19.9472 C   0  0  0  0  0  0  0  0  0  0  0  0
    5.8546    0.6600   20.2692 C   0  0  0  0  0  0  0  0  0  0  0  0
    5.3616    0.8371   21.5902 C   0  0  0  0  0  0  0  0  0  0  0  0
    4.1987    1.5121   21.8202 C   0  0  0  0  0  0  0  0  0  0  0  0
    3.4767    2.0551   20.7712 C   0  0  0  0  0  0  0  0  0  0  0  0
    3.9236    1.9420   19.4872 C   0  0  0  0  0  0  0  0  0  0  0  0
    5.1236    1.2450   19.1992 C   0  0  0  0  0  0  0  0  0  0  0  0
    5.5945    1.0259   17.8822 C   0  0  0  0  0  0  0  0  0  0  0  0
    6.6495    0.2798   17.5862 N   0  0  0  0  0  0  0  0  0  0  0  0
    7.2845   -0.3222   18.5992 C   0  0  0  0  0  0  0  0  0  0  0  0
   11.3345   -1.7307   21.2243 H   0  0  0  0  0  0  0  0  0  0  0  0
   14.7374    0.3586   22.7399 H   0  0  0  0  0  0  0  0  0  0  0  0
   13.3063    1.5323   24.3786 H   0  0  0  0  0  0  0  0  0  0  0  0
   10.0341   -0.4211   25.6216 H   0  0  0  0  0  0  0  0  0  0  0  0
    9.1305    1.1101   25.8777 H   0  0  0  0  0  0  0  0  0  0  0  0
    7.9433   -0.5583   24.4370 H   0  0  0  0  0  0  0  0  0  0  0  0
    8.2270    1.0308   23.6492 H   0  0  0  0  0  0  0  0  0  0  0  0
    9.6109   -2.5110   23.8533 H   0  0  0  0  0  0  0  0  0  0  0  0
    8.0982   -2.3181   22.9041 H   0  0  0  0  0  0  0  0  0  0  0  0
    9.6574   -2.6074   22.0603 H   0  0  0  0  0  0  0  0  0  0  0  0
    7.8065   -1.5164   21.1770 H   0  0  0  0  0  0  0  0  0  0  0  0
    5.9155    0.4315   22.4239 H   0  0  0  0  0  0  0  0  0  0  0  0
    3.8373    1.6242   22.8318 H   0  0  0  0  0  0  0  0  0  0  0  0
    2.5505    2.5733   20.9714 H   0  0  0  0  0  0  0  0  0  0  0  0
    3.3577    2.3879   18.6826 H   0  0  0  0  0  0  0  0  0  0  0  0
    5.0615    1.4955   17.0687 H   0  0  0  0  0  0  0  0  0  0  0  0
    8.1092   -0.9743   18.3525 H   0  0  0  0  0  0  0  0  0  0  0  0
  1  2  2  0
  3  2  1  6
  2 15  1  0
  3  4  1  0
  3 13  1  0
  3 14  1  0
  4  5  2  0
  4 10  1  0
  5  6  1  0
  5 26  1  0
  6  7  1  0
  6  8  2  0
  8  9  1  0
  8 27  1  0
  9 10  2  0
  9 28  1  0
 10 11  1  0
 11 12  1  0
 12 13  1  0
 12 29  1  1
 12 30  1  0
 13 31  1  1
 13 32  1  0
 14 33  1  1
 14 34  1  0
 14 35  1  0
 15 16  1  0
 15 36  1  0
 16 17  2  0
 16 25  1  0
 17 18  1  0
 17 22  1  0
 18 19  2  0
 18 37  1  0
 19 20  1  0
 19 38  1  0
 20 21  2  0
 20 39  1  0
 21 22  1  0
 21 40  1  0
 22 23  2  0
 23 24  1  0
 23 41  1  0
 24 25  2  0
 25 42  1  0
M  END
$$$$
