LIG(A-306)
     RDKit          3D

 34 36  0  0  0  0  0  0  0  0999 V2000
  -14.3346   -2.3965  -21.6359 Cl  0  0  0  0  0  0  0  0  0  0  0  0
  -13.0739   -1.5714  -22.5009 C   0  0  0  0  0  0  0  0  0  0  0  0
  -13.3719   -0.5646  -23.4140 C   0  0  0  0  0  0  0  0  0  0  0  0
  -15.0113   -0.0888  -23.7221 Cl  0  0  0  0  0  0  0  0  0  0  0  0
  -12.3503    0.1013  -24.0632 C   0  0  0  0  0  0  0  0  0  0  0  0
  -11.0357   -0.2297  -23.8002 C   0  0  0  0  0  0  0  0  0  0  0  0
  -11.7593   -1.9094  -22.2359 C   0  0  0  0  0  0  0  0  0  0  0  0
  -10.7297   -1.2275  -22.8800 C   0  0  0  0  0  0  0  0  0  0  0  0
   -9.2950   -1.5639  -22.5682 C   0  0  1  0  0  0  0  0  0  0  0  0
   -9.2114   -2.8576  -22.1418 F   0  0  0  0  0  0  0  0  0  0  0  0
   -8.5495   -1.5027  -23.7081 F   0  0  0  0  0  0  0  0  0  0  0  0
   -8.7073   -0.5969  -21.5067 C   0  0  0  0  0  0  0  0  0  0  0  0
   -9.0674    0.5726  -21.4052 O   0  0  0  0  0  0  0  0  0  0  0  0
   -7.8563   -1.1539  -20.6298 N   0  0  0  0  0  0  0  0  0  0  0  0
   -6.8290   -0.6470  -19.8205 C   0  0  0  0  0  0  0  0  0  0  0  0
   -5.8595    0.2925  -20.3087 C   0  0  0  0  0  0  0  0  0  0  0  0
   -5.4802    0.4033  -21.6728 C   0  0  0  0  0  0  0  0  0  0  0  0
   -4.4618    1.2352  -22.0574 C   0  0  0  0  0  0  0  0  0  0  0  0
   -3.7837    2.0035  -21.1227 C   0  0  0  0  0  0  0  0  0  0  0  0
   -4.1150    1.9407  -19.8005 C   0  0  0  0  0  0  0  0  0  0  0  0
   -5.1514    1.0796  -19.3570 C   0  0  0  0  0  0  0  0  0  0  0  0
   -5.4738    0.9046  -17.9931 C   0  0  0  0  0  0  0  0  0  0  0  0
   -6.3602    0.0331  -17.5418 N   0  0  0  0  0  0  0  0  0  0  0  0
   -6.9872   -0.7294  -18.4406 C   0  0  0  0  0  0  0  0  0  0  0  0
  -12.5795    0.8799  -24.7757 H   0  0  0  0  0  0  0  0  0  0  0  0
  -10.2393    0.2898  -24.3124 H   0  0  0  0  0  0  0  0  0  0  0  0
  -11.5324   -2.6976  -21.5334 H   0  0  0  0  0  0  0  0  0  0  0  0
   -7.9819   -2.1412  -20.5331 H   0  0  0  0  0  0  0  0  0  0  0  0
   -6.0027   -0.1774  -22.4187 H   0  0  0  0  0  0  0  0  0  0  0  0
   -4.1842    1.2935  -23.0995 H   0  0  0  0  0  0  0  0  0  0  0  0
   -2.9865    2.6571  -21.4443 H   0  0  0  0  0  0  0  0  0  0  0  0
   -3.5838    2.5517  -19.0857 H   0  0  0  0  0  0  0  0  0  0  0  0
   -4.9626    1.5237  -17.2708 H   0  0  0  0  0  0  0  0  0  0  0  0
   -7.6750   -1.4725  -18.0651 H   0  0  0  0  0  0  0  0  0  0  0  0
  1  2  1  0
  2  3  2  0
  2  7  1  0
  3  4  1  0
  3  5  1  0
  5  6  2  0
  5 25  1  0
  6  8  1  0
  6 26  1  0
  7  8  2  0
  7 27  1  0
  8  9  1  0
  9 10  1  1
  9 11  1  0
  9 12  1  0
 12 13  2  0
 12 14  1  0
 14 15  1  0
 14 28  1  0
 15 16  2  0
 15 24  1  0
 16 17  1  0
 16 21  1  0
 17 18  2  0
 17 29  1  0
 18 19  1  0
 18 30  1  0
 19 20  2  0
 19 31  1  0
 20 21  1  0
 20 32  1  0
 21 22  2  0
 22 23  1  0
 22 33  1  0
 23 24  2  0
 24 34  1  0
M  END
$$$$
