LIG(A-306)
     RDKit          3D

 53 56  0  0  1  0  0  0  0  0999 V2000
    9.2696    1.3412   21.3647 O   0  0  0  0  0  0  0  0  0  0  0  0
    8.9231    0.2023   21.6569 C   0  0  0  0  0  0  0  0  0  0  0  0
    8.0914   -0.4722   20.8429 N   0  0  0  0  0  0  0  0  0  0  0  0
    7.0607   -0.0885   19.9647 C   0  0  0  0  0  0  0  0  0  0  0  0
    6.0344    0.8280   20.3623 C   0  0  0  0  0  0  0  0  0  0  0  0
    5.6994    1.0965   21.7151 C   0  0  0  0  0  0  0  0  0  0  0  0
    4.6004    1.8444   22.0358 C   0  0  0  0  0  0  0  0  0  0  0  0
    3.7903    2.3739   21.0405 C   0  0  0  0  0  0  0  0  0  0  0  0
    4.0822    2.1665   19.7224 C   0  0  0  0  0  0  0  0  0  0  0  0
    5.2062    1.3894   19.3478 C   0  0  0  0  0  0  0  0  0  0  0  0
    5.4904    1.0528   18.0045 C   0  0  0  0  0  0  0  0  0  0  0  0
    6.4446    0.2174   17.6335 N   0  0  0  0  0  0  0  0  0  0  0  0
    7.1797   -0.3464   18.5981 C   0  0  0  0  0  0  0  0  0  0  0  0
    9.5478   -0.5323   22.8727 C   0  0  1  0  0  0  0  0  0  0  0  0
   11.0362   -0.1903   22.9030 C   0  0  0  0  0  0  0  0  0  0  0  0
   11.9176   -0.8786   22.0732 C   0  0  0  0  0  0  0  0  0  0  0  0
   13.2488   -0.5143   22.0415 C   0  0  0  0  0  0  0  0  0  0  0  0
   14.3020   -1.2902   20.8910 Cl  0  0  0  0  0  0  0  0  0  0  0  0
   13.7498    0.4895   22.8449 C   0  0  0  0  0  0  0  0  0  0  0  0
   12.8975    1.1581   23.7049 C   0  0  0  0  0  0  0  0  0  0  0  0
   11.5512    0.8296   23.7183 C   0  0  0  0  0  0  0  0  0  0  0  0
   10.7666    1.6210   24.5234 O   0  0  0  0  0  0  0  0  0  0  0  0
    9.3318    1.4408   24.4471 C   0  0  1  0  0  0  0  0  0  0  0  0
    8.9202    0.0104   24.1761 C   0  0  2  0  0  0  0  0  0  0  0  0
    9.3796   -2.0709   22.8271 C   0  0  1  0  0  0  0  0  0  0  0  0
    8.0778   -2.4679   23.2389 O   0  0  0  0  0  0  0  0  0  0  0  0
    8.0999   -3.6118   24.0788 C   0  0  1  0  0  0  0  0  0  0  0  0
    7.3935   -4.8147   23.4928 C   0  0  0  0  0  0  0  0  0  0  0  0
    7.9955   -5.8831   23.4086 O   0  0  0  0  0  0  0  0  0  0  0  0
    6.1130   -4.6941   23.1645 N   0  0  0  0  0  0  0  0  0  0  0  0
    5.2469   -5.8450   22.9664 C   0  0  1  0  0  0  0  0  0  0  0  0
    8.2371   -1.4612   20.8669 H   0  0  0  0  0  0  0  0  0  0  0  0
    6.3229    0.7036   22.5045 H   0  0  0  0  0  0  0  0  0  0  0  0
    4.3603    2.0248   23.0732 H   0  0  0  0  0  0  0  0  0  0  0  0
    2.9212    2.9552   21.3110 H   0  0  0  0  0  0  0  0  0  0  0  0
    3.4512    2.5983   18.9596 H   0  0  0  0  0  0  0  0  0  0  0  0
    4.8888    1.5079   17.2316 H   0  0  0  0  0  0  0  0  0  0  0  0
    7.9290   -1.0622   18.2938 H   0  0  0  0  0  0  0  0  0  0  0  0
   11.5620   -1.6922   21.4583 H   0  0  0  0  0  0  0  0  0  0  0  0
   14.7970    0.7505   22.8027 H   0  0  0  0  0  0  0  0  0  0  0  0
   13.2774    1.9286   24.3594 H   0  0  0  0  0  0  0  0  0  0  0  0
    8.8893    1.7559   25.4036 H   0  0  0  0  0  0  0  0  0  0  0  0
    8.9432    2.0750   23.6367 H   0  0  0  0  0  0  0  0  0  0  0  0
    9.2467   -0.6191   25.0171 H   0  0  0  0  0  0  0  0  0  0  0  0
    7.8246   -0.0340   24.0887 H   0  0  0  0  0  0  0  0  0  0  0  0
    9.5497   -2.4182   21.7973 H   0  0  0  0  0  0  0  0  0  0  0  0
   10.1216   -2.5310   23.4964 H   0  0  0  0  0  0  0  0  0  0  0  0
    9.1492   -3.8836   24.2668 H   0  0  0  0  0  0  0  0  0  0  0  0
    7.6121   -3.3528   25.0301 H   0  0  0  0  0  0  0  0  0  0  0  0
    5.7298   -3.7777   23.0492 H   0  0  0  0  0  0  0  0  0  0  0  0
    4.2356   -5.5022   22.7023 H   0  0  0  0  0  0  0  0  0  0  0  0
    5.6466   -6.4688   22.1533 H   0  0  0  0  0  0  0  0  0  0  0  0
    5.2034   -6.4350   23.8937 H   0  0  0  0  0  0  0  0  0  0  0  0
  1  2  2  0
  2  3  1  0
 14  2  1  6
  3  4  1  0
  3 32  1  0
  4  5  2  0
  4 13  1  0
  5  6  1  0
  5 10  1  0
  6  7  2  0
  6 33  1  0
  7  8  1  0
  7 34  1  0
  8  9  2  0
  8 35  1  0
  9 10  1  0
  9 36  1  0
 10 11  2  0
 11 12  1  0
 11 37  1  0
 12 13  2  0
 13 38  1  0
 14 15  1  0
 14 24  1  0
 14 25  1  0
 15 16  2  0
 15 21  1  0
 16 17  1  0
 16 39  1  0
 17 18  1  0
 17 19  2  0
 19 20  1  0
 19 40  1  0
 20 21  2  0
 20 41  1  0
 21 22  1  0
 22 23  1  0
 23 24  1  0
 23 42  1  1
 23 43  1  0
 24 44  1  1
 24 45  1  0
 25 26  1  0
 25 46  1  6
 25 47  1  0
 26 27  1  0
 27 28  1  0
 27 48  1  1
 27 49  1  0
 28 29  2  0
 28 30  1  0
 30 31  1  0
 30 50  1  0
 31 51  1  6
 31 52  1  0
 31 53  1  0
M  END
$$$$
