LIG(B-306)
     RDKit          3D

 41 43  0  0  0  0  0  0  0  0999 V2000
  -14.2014   -2.9022  -21.2550 Cl  0  0  0  0  0  0  0  0  0  0  0  0
  -13.0037   -2.2528  -22.3401 C   0  0  0  0  0  0  0  0  0  0  0  0
  -13.4142   -1.5331  -23.4414 C   0  0  0  0  0  0  0  0  0  0  0  0
  -12.4500   -0.9748  -24.2671 C   0  0  0  0  0  0  0  0  0  0  0  0
  -11.1025   -1.1340  -23.9760 C   0  0  0  0  0  0  0  0  0  0  0  0
  -11.6661   -2.4384  -22.0484 C   0  0  0  0  0  0  0  0  0  0  0  0
  -10.6957   -1.8616  -22.8645 C   0  0  0  0  0  0  0  0  0  0  0  0
   -9.2288   -2.0116  -22.5285 C   0  0  1  0  0  0  0  0  0  0  0  0
   -8.7702   -1.1263  -21.3833 C   0  0  0  0  0  0  0  0  0  0  0  0
   -9.3425   -0.0756  -21.1059 O   0  0  0  0  0  0  0  0  0  0  0  0
   -7.6804   -1.5841  -20.7288 N   0  0  0  0  0  0  0  0  0  0  0  0
   -6.9144   -0.9373  -19.7349 C   0  0  0  0  0  0  0  0  0  0  0  0
   -7.2424   -0.9141  -18.3790 C   0  0  0  0  0  0  0  0  0  0  0  0
   -6.5469   -0.2713  -17.4296 N   0  0  0  0  0  0  0  0  0  0  0  0
   -5.4686    0.3963  -17.8080 C   0  0  0  0  0  0  0  0  0  0  0  0
   -5.7415   -0.2285  -20.1425 C   0  0  0  0  0  0  0  0  0  0  0  0
   -5.0037    0.4683  -19.1441 C   0  0  0  0  0  0  0  0  0  0  0  0
   -3.8455    1.1882  -19.5261 C   0  0  0  0  0  0  0  0  0  0  0  0
   -3.4231    1.1934  -20.8219 C   0  0  0  0  0  0  0  0  0  0  0  0
   -5.2696   -0.2023  -21.4804 C   0  0  0  0  0  0  0  0  0  0  0  0
   -4.1182    0.4741  -21.7903 C   0  0  0  0  0  0  0  0  0  0  0  0
   -3.5273    0.2994  -23.0721 O   0  0  0  0  0  0  0  0  0  0  0  0
   -3.3156    1.5370  -24.0718 S   0  0  2  0  0  0  0  0  0  0  0  0
   -3.0570    0.9772  -25.3538 O   0  0  0  0  0  0  0  0  0  0  0  0
   -2.3524    2.4086  -23.4940 O   0  0  0  0  0  0  0  0  0  0  0  0
   -4.8799    2.3074  -24.0702 C   0  0  1  0  0  0  0  0  0  0  0  0
  -14.4649   -1.4065  -23.6569 H   0  0  0  0  0  0  0  0  0  0  0  0
  -12.7489   -0.4140  -25.1403 H   0  0  0  0  0  0  0  0  0  0  0  0
  -10.3609   -0.6867  -24.6213 H   0  0  0  0  0  0  0  0  0  0  0  0
  -11.3743   -3.0278  -21.1917 H   0  0  0  0  0  0  0  0  0  0  0  0
   -9.0413   -3.0600  -22.2533 H   0  0  0  0  0  0  0  0  0  0  0  0
   -8.6403   -1.7561  -23.4219 H   0  0  0  0  0  0  0  0  0  0  0  0
   -7.3762   -2.5025  -20.9819 H   0  0  0  0  0  0  0  0  0  0  0  0
   -8.1243   -1.4555  -18.0702 H   0  0  0  0  0  0  0  0  0  0  0  0
   -4.9068    0.9201  -17.0488 H   0  0  0  0  0  0  0  0  0  0  0  0
   -3.2903    1.7396  -18.7817 H   0  0  0  0  0  0  0  0  0  0  0  0
   -2.5451    1.7581  -21.0988 H   0  0  0  0  0  0  0  0  0  0  0  0
   -5.8185   -0.7160  -22.2558 H   0  0  0  0  0  0  0  0  0  0  0  0
   -4.8575    3.1854  -24.7325 H   0  0  0  0  0  0  0  0  0  0  0  0
   -5.6389    1.5968  -24.4294 H   0  0  0  0  0  0  0  0  0  0  0  0
   -5.1306    2.6260  -23.0477 H   0  0  0  0  0  0  0  0  0  0  0  0
  1  2  1  0
  2  3  2  0
  2  6  1  0
  3  4  1  0
  3 27  1  0
  4  5  2  0
  4 28  1  0
  5  7  1  0
  5 29  1  0
  6  7  2  0
  6 30  1  0
  7  8  1  0
  8  9  1  0
  8 31  1  1
  8 32  1  0
  9 10  2  0
  9 11  1  0
 11 12  1  0
 11 33  1  0
 12 13  2  0
 12 16  1  0
 13 14  1  0
 13 34  1  0
 14 15  2  0
 15 17  1  0
 15 35  1  0
 16 17  2  0
 16 20  1  0
 17 18  1  0
 18 19  2  0
 18 36  1  0
 19 21  1  0
 19 37  1  0
 20 21  2  0
 20 38  1  0
 21 22  1  0
 23 22  1  1
 23 24  2  0
 23 25  2  0
 23 26  1  0
 26 39  1  6
 26 40  1  0
 26 41  1  0
M  END
$$$$
