LIG(A-306)
     RDKit          3D

 50 53  0  0  1  0  0  0  0  0999 V2000
   14.0574   -1.6298   21.5139 Cl  0  0  0  0  0  0  0  0  0  0  0  0
   12.8285   -0.8341   22.4538 C   0  0  0  0  0  0  0  0  0  0  0  0
   11.5056   -1.1770   22.2581 C   0  0  0  0  0  0  0  0  0  0  0  0
   13.1973    0.1441   23.3504 C   0  0  0  0  0  0  0  0  0  0  0  0
   12.2145    0.7900   24.0755 C   0  0  0  0  0  0  0  0  0  0  0  0
   10.8673    0.4631   23.9159 C   0  0  0  0  0  0  0  0  0  0  0  0
    9.8459    1.0936   24.8348 C   0  0  1  0  0  0  0  0  0  0  0  0
    8.4780    0.8893   24.3506 N   0  0  0  0  0  0  0  0  0  0  0  0
    7.4510    1.7164   24.6940 C   0  0  0  0  0  0  0  0  0  0  0  0
    6.3970    1.2955   25.1364 O   0  0  0  0  0  0  0  0  0  0  0  0
    7.6770    3.0448   24.5284 N   0  0  0  0  0  0  0  0  0  0  0  0
    7.7611    3.9598   25.6697 C   0  0  1  0  0  0  0  0  0  0  0  0
    7.8551    3.6487   23.2112 C   0  0  1  0  0  0  0  0  0  0  0  0
   10.5073   -0.5169   22.9765 C   0  0  0  0  0  0  0  0  0  0  0  0
    9.0443   -0.8455   22.7419 C   0  0  1  0  0  0  0  0  0  0  0  0
    8.2187   -0.5048   23.9820 C   0  0  2  0  0  0  0  0  0  0  0  0
    8.5126   -0.0278   21.5617 C   0  0  0  0  0  0  0  0  0  0  0  0
    9.0394    1.0265   21.2064 O   0  0  0  0  0  0  0  0  0  0  0  0
    7.3940   -0.5307   20.9825 N   0  0  0  0  0  0  0  0  0  0  0  0
    6.6429    0.0269   19.9242 C   0  0  0  0  0  0  0  0  0  0  0  0
    5.5419    0.8871   20.2354 C   0  0  0  0  0  0  0  0  0  0  0  0
    5.1002    1.1586   21.5561 C   0  0  0  0  0  0  0  0  0  0  0  0
    4.0588    2.0142   21.7885 C   0  0  0  0  0  0  0  0  0  0  0  0
    3.4059    2.6409   20.7301 C   0  0  0  0  0  0  0  0  0  0  0  0
    3.7933    2.4121   19.4393 C   0  0  0  0  0  0  0  0  0  0  0  0
    4.8677    1.5284   19.1552 C   0  0  0  0  0  0  0  0  0  0  0  0
    5.3194    1.2556   17.8417 C   0  0  0  0  0  0  0  0  0  0  0  0
    6.3298    0.4463   17.5535 N   0  0  0  0  0  0  0  0  0  0  0  0
    6.9656   -0.1410   18.5766 C   0  0  0  0  0  0  0  0  0  0  0  0
   11.2444   -1.9519   21.5527 H   0  0  0  0  0  0  0  0  0  0  0  0
   14.2374    0.4020   23.4844 H   0  0  0  0  0  0  0  0  0  0  0  0
   12.4938    1.5613   24.7781 H   0  0  0  0  0  0  0  0  0  0  0  0
    9.9405    0.6438   25.8342 H   0  0  0  0  0  0  0  0  0  0  0  0
   10.0432    2.1738   24.8987 H   0  0  0  0  0  0  0  0  0  0  0  0
    7.9483    4.9817   25.3081 H   0  0  0  0  0  0  0  0  0  0  0  0
    6.8140    3.9365   26.2287 H   0  0  0  0  0  0  0  0  0  0  0  0
    8.5841    3.6481   26.3296 H   0  0  0  0  0  0  0  0  0  0  0  0
    8.0240    4.7299   23.3228 H   0  0  0  0  0  0  0  0  0  0  0  0
    8.7227    3.1917   22.7128 H   0  0  0  0  0  0  0  0  0  0  0  0
    6.9529    3.4792   22.6053 H   0  0  0  0  0  0  0  0  0  0  0  0
    8.9403   -1.9174   22.5180 H   0  0  0  0  0  0  0  0  0  0  0  0
    7.1490   -0.6367   23.7622 H   0  0  0  0  0  0  0  0  0  0  0  0
    8.5069   -1.1668   24.8119 H   0  0  0  0  0  0  0  0  0  0  0  0
    7.0614   -1.3999   21.3484 H   0  0  0  0  0  0  0  0  0  0  0  0
    5.5937    0.6825   22.3905 H   0  0  0  0  0  0  0  0  0  0  0  0
    3.7398    2.2056   22.8024 H   0  0  0  0  0  0  0  0  0  0  0  0
    2.5856    3.3142   20.9310 H   0  0  0  0  0  0  0  0  0  0  0  0
    3.2782    2.9071   18.6293 H   0  0  0  0  0  0  0  0  0  0  0  0
    4.8083    1.7375   17.0213 H   0  0  0  0  0  0  0  0  0  0  0  0
    7.7919   -0.7951   18.3401 H   0  0  0  0  0  0  0  0  0  0  0  0
  1  2  1  0
  2  3  2  0
  2  4  1  0
  3 14  1  0
  3 30  1  0
  4  5  2  0
  4 31  1  0
  5  6  1  0
  5 32  1  0
  6  7  1  0
  6 14  2  0
  7  8  1  0
  7 33  1  1
  7 34  1  0
  8  9  1  0
  8 16  1  0
  9 10  2  0
  9 11  1  0
 11 12  1  0
 11 13  1  0
 12 35  1  6
 12 36  1  0
 12 37  1  0
 13 38  1  1
 13 39  1  0
 13 40  1  0
 14 15  1  0
 15 16  1  0
 15 17  1  0
 15 41  1  6
 16 42  1  6
 16 43  1  0
 17 18  2  0
 17 19  1  0
 19 20  1  0
 19 44  1  0
 20 21  2  0
 20 29  1  0
 21 22  1  0
 21 26  1  0
 22 23  2  0
 22 45  1  0
 23 24  1  0
 23 46  1  0
 24 25  2  0
 24 47  1  0
 25 26  1  0
 25 48  1  0
 26 27  2  0
 27 28  1  0
 27 49  1  0
 28 29  2  0
 29 50  1  0
M  END
$$$$
