LIG(A-306)
     RDKit          3D

 34 36  0  0  0  0  0  0  0  0999 V2000
   14.1054   -1.4355   21.5142 Cl  0  0  0  0  0  0  0  0  0  0  0  0
   12.8059   -0.8249   22.4981 C   0  0  0  0  0  0  0  0  0  0  0  0
   13.0833    0.1049   23.4798 C   0  0  0  0  0  0  0  0  0  0  0  0
   12.0342    0.6080   24.2312 C   0  0  0  0  0  0  0  0  0  0  0  0
   10.7331    0.1969   23.9780 C   0  0  0  0  0  0  0  0  0  0  0  0
   11.5176   -1.2526   22.2413 C   0  0  0  0  0  0  0  0  0  0  0  0
   10.4583   -0.7214   22.9711 C   0  0  0  0  0  0  0  0  0  0  0  0
    9.0316   -1.0824   22.6176 C   0  0  1  0  0  0  0  0  0  0  0  0
    8.4209   -0.1737   21.5695 C   0  0  0  0  0  0  0  0  0  0  0  0
    8.9255    0.9129   21.2787 O   0  0  0  0  0  0  0  0  0  0  0  0
    7.2983   -0.6606   20.9905 N   0  0  0  0  0  0  0  0  0  0  0  0
    6.5821   -0.0626   19.9238 C   0  0  0  0  0  0  0  0  0  0  0  0
    6.9803   -0.2814   18.6069 C   0  0  0  0  0  0  0  0  0  0  0  0
    6.4141    0.3188   17.5506 N   0  0  0  0  0  0  0  0  0  0  0  0
    5.4084    1.1702   17.7791 C   0  0  0  0  0  0  0  0  0  0  0  0
    5.5140    0.8216   20.1330 C   0  0  0  0  0  0  0  0  0  0  0  0
    4.8597    1.2457   21.2591 N   0  0  0  0  0  0  0  0  0  0  0  0
    5.0905    0.9036   22.6548 C   0  0  1  0  0  0  0  0  0  0  0  0
    4.8955    1.4757   19.0441 C   0  0  0  0  0  0  0  0  0  0  0  0
    3.8842    2.2696   19.6428 C   0  0  0  0  0  0  0  0  0  0  0  0
    3.8652    2.1283   20.9519 N   0  0  0  0  0  0  0  0  0  0  0  0
   14.0967    0.4332   23.6580 H   0  0  0  0  0  0  0  0  0  0  0  0
   12.2294    1.3227   25.0171 H   0  0  0  0  0  0  0  0  0  0  0  0
    9.9233    0.5956   24.5711 H   0  0  0  0  0  0  0  0  0  0  0  0
   11.3336   -1.9947   21.4787 H   0  0  0  0  0  0  0  0  0  0  0  0
    9.0178   -2.1137   22.2353 H   0  0  0  0  0  0  0  0  0  0  0  0
    8.4205   -1.0214   23.5302 H   0  0  0  0  0  0  0  0  0  0  0  0
    6.9410   -1.5230   21.3490 H   0  0  0  0  0  0  0  0  0  0  0  0
    7.7902   -0.9729   18.4271 H   0  0  0  0  0  0  0  0  0  0  0  0
    4.9600    1.6569   16.9256 H   0  0  0  0  0  0  0  0  0  0  0  0
    6.1123    1.1946   22.9400 H   0  0  0  0  0  0  0  0  0  0  0  0
    4.3670    1.4382   23.2878 H   0  0  0  0  0  0  0  0  0  0  0  0
    4.9665   -0.1808   22.7917 H   0  0  0  0  0  0  0  0  0  0  0  0
    3.2121    2.9114   19.0926 H   0  0  0  0  0  0  0  0  0  0  0  0
  1  2  1  0
  2  3  2  0
  2  6  1  0
  3  4  1  0
  3 22  1  0
  4  5  2  0
  4 23  1  0
  5  7  1  0
  5 24  1  0
  6  7  2  0
  6 25  1  0
  7  8  1  0
  8  9  1  0
  8 26  1  6
  8 27  1  0
  9 10  2  0
  9 11  1  0
 11 12  1  0
 11 28  1  0
 12 13  2  0
 12 16  1  0
 13 14  1  0
 13 29  1  0
 14 15  2  0
 15 19  1  0
 15 30  1  0
 16 17  1  0
 16 19  2  0
 17 18  1  0
 17 21  1  0
 18 31  1  1
 18 32  1  0
 18 33  1  0
 19 20  1  0
 20 21  2  0
 20 34  1  0
M  END
$$$$
