LIG(A-306)
     RDKit          3D

 47 50  0  0  1  0  0  0  0  0999 V2000
    9.4460    1.3521   21.2611 O   0  0  0  0  0  0  0  0  0  0  0  0
    9.1232    0.2761   21.7431 C   0  0  0  0  0  0  0  0  0  0  0  0
    9.9693   -0.3758   22.8640 C   0  0  2  0  0  0  0  0  0  0  0  0
   11.2052    0.4813   23.1620 C   0  0  0  0  0  0  0  0  0  0  0  0
   11.0100    1.7223   23.7681 C   0  0  0  0  0  0  0  0  0  0  0  0
   12.0599    2.6174   23.8491 C   0  0  0  0  0  0  0  0  0  0  0  0
   11.7567    4.2064   24.4871 Cl  0  0  0  0  0  0  0  0  0  0  0  0
   13.3230    2.3066   23.3930 C   0  0  0  0  0  0  0  0  0  0  0  0
   13.5531    1.0627   22.8390 C   0  0  0  0  0  0  0  0  0  0  0  0
   12.5032    0.1625   22.7270 C   0  0  0  0  0  0  0  0  0  0  0  0
   12.8554   -1.3964   22.0109 S   0  0  1  0  0  0  0  0  0  0  0  0
   13.6904   -1.2112   20.8629 O   0  0  0  0  0  0  0  0  0  0  0  0
   13.2886   -2.2994   23.0328 O   0  0  0  0  0  0  0  0  0  0  0  0
   11.3865   -1.8796   21.5039 N   0  0  0  0  0  0  0  0  0  0  0  0
   10.3635   -1.8348   22.5560 C   0  0  2  0  0  0  0  0  0  0  0  0
    9.0344   -0.3510   24.0900 C   0  0  1  0  0  0  0  0  0  0  0  0
    8.0433   -0.4241   21.3171 N   0  0  0  0  0  0  0  0  0  0  0  0
    7.1972   -0.0451   20.2411 C   0  0  0  0  0  0  0  0  0  0  0  0
    6.0281    0.7177   20.4502 C   0  0  0  0  0  0  0  0  0  0  0  0
    5.6321    1.1426   21.8472 C   0  0  1  0  0  0  0  0  0  0  0  0
    4.1730    1.5564   21.9503 C   0  0  1  0  0  0  0  0  0  0  0  0
    3.8108    2.5234   20.8413 C   0  0  1  0  0  0  0  0  0  0  0  0
    3.9879    1.8854   19.4813 C   0  0  1  0  0  0  0  0  0  0  0  0
    5.2740    1.1086   19.3322 C   0  0  0  0  0  0  0  0  0  0  0  0
    5.7320    0.7377   18.0822 C   0  0  0  0  0  0  0  0  0  0  0  0
    6.8361    0.0179   17.8631 N   0  0  0  0  0  0  0  0  0  0  0  0
    7.5442   -0.3690   18.9311 C   0  0  0  0  0  0  0  0  0  0  0  0
   10.0429    1.9825   24.1722 H   0  0  0  0  0  0  0  0  0  0  0  0
   14.1235    3.0276   23.4681 H   0  0  0  0  0  0  0  0  0  0  0  0
   14.5411    0.7931   22.4960 H   0  0  0  0  0  0  0  0  0  0  0  0
   11.1135   -1.6672   20.5656 H   0  0  0  0  0  0  0  0  0  0  0  0
    9.4736   -2.3869   22.2194 H   0  0  0  0  0  0  0  0  0  0  0  0
   10.7618   -2.3025   23.4684 H   0  0  0  0  0  0  0  0  0  0  0  0
    9.5487   -0.7986   24.9532 H   0  0  0  0  0  0  0  0  0  0  0  0
    8.7637    0.6892   24.3237 H   0  0  0  0  0  0  0  0  0  0  0  0
    8.1232   -0.9258   23.8679 H   0  0  0  0  0  0  0  0  0  0  0  0
    7.8255   -1.2734   21.7979 H   0  0  0  0  0  0  0  0  0  0  0  0
    5.8069    0.3003   22.5327 H   0  0  0  0  0  0  0  0  0  0  0  0
    6.2602    1.9949   22.1458 H   0  0  0  0  0  0  0  0  0  0  0  0
    3.5376    0.6620   21.8713 H   0  0  0  0  0  0  0  0  0  0  0  0
    4.0033    2.0420   22.9226 H   0  0  0  0  0  0  0  0  0  0  0  0
    2.7610    2.8293   20.9605 H   0  0  0  0  0  0  0  0  0  0  0  0
    4.4607    3.4082   20.9101 H   0  0  0  0  0  0  0  0  0  0  0  0
    3.1464    1.1983   19.3089 H   0  0  0  0  0  0  0  0  0  0  0  0
    3.9735    2.6806   18.7213 H   0  0  0  0  0  0  0  0  0  0  0  0
    5.1577    1.0515   17.2230 H   0  0  0  0  0  0  0  0  0  0  0  0
    8.4311   -0.9636   18.7688 H   0  0  0  0  0  0  0  0  0  0  0  0
  1  2  2  0
  3  2  1  6
  2 17  1  0
  3  4  1  0
  3 15  1  0
  3 16  1  0
  4  5  2  0
  4 10  1  0
  5  6  1  0
  5 28  1  0
  6  7  1  0
  6  8  2  0
  8  9  1  0
  8 29  1  0
  9 10  2  0
  9 30  1  0
 10 11  1  0
 11 12  2  0
 11 13  2  0
 11 14  1  6
 14 15  1  0
 14 31  1  0
 15 32  1  6
 15 33  1  0
 16 34  1  1
 16 35  1  0
 16 36  1  0
 17 18  1  0
 17 37  1  0
 18 19  2  0
 18 27  1  0
 19 20  1  0
 19 24  1  0
 20 21  1  0
 20 38  1  1
 20 39  1  0
 21 22  1  0
 21 40  1  1
 21 41  1  0
 22 23  1  0
 22 42  1  1
 22 43  1  0
 23 24  1  0
 23 44  1  6
 23 45  1  0
 24 25  2  0
 25 26  1  0
 25 46  1  0
 26 27  2  0
 27 47  1  0
M  END
$$$$
