LIG(A-306)
     RDKit          3D

 40 42  0  0  0  0  0  0  0  0999 V2000
    8.7438    0.8766   20.8774 O   0  0  0  0  0  0  0  0  0  0  0  0
    8.2844   -0.2393   21.1198 C   0  0  0  0  0  0  0  0  0  0  0  0
    8.9856   -1.2222   22.0368 C   0  0  1  0  0  0  0  0  0  0  0  0
   10.1991   -0.6469   22.7323 C   0  0  0  0  0  0  0  0  0  0  0  0
   11.4712   -1.1224   22.4329 C   0  0  0  0  0  0  0  0  0  0  0  0
   12.5648   -0.5587   23.0554 C   0  0  0  0  0  0  0  0  0  0  0  0
   14.1425   -1.2404   22.7681 Cl  0  0  0  0  0  0  0  0  0  0  0  0
   12.4341    0.4754   23.9633 C   0  0  0  0  0  0  0  0  0  0  0  0
   10.0595    0.3704   23.6713 C   0  0  0  0  0  0  0  0  0  0  0  0
   11.1650    0.9272   24.3078 C   0  0  0  0  0  0  0  0  0  0  0  0
   10.9775    1.8874   25.4690 C   0  0  1  0  0  0  0  0  0  0  0  0
   10.8201    3.3494   25.1208 C   0  0  1  0  0  0  0  0  0  0  0  0
    7.1286   -0.6997   20.5948 N   0  0  0  0  0  0  0  0  0  0  0  0
    6.3183   -0.0703   19.6346 C   0  0  0  0  0  0  0  0  0  0  0  0
    5.2692    0.7895   20.0851 C   0  0  0  0  0  0  0  0  0  0  0  0
    4.8547    0.8921   21.4385 C   0  0  0  0  0  0  0  0  0  0  0  0
    3.8446    1.7386   21.8021 C   0  0  0  0  0  0  0  0  0  0  0  0
    3.2010    2.5204   20.8531 C   0  0  0  0  0  0  0  0  0  0  0  0
    3.5614    2.4548   19.5385 C   0  0  0  0  0  0  0  0  0  0  0  0
    4.6015    1.5881   19.1170 C   0  0  0  0  0  0  0  0  0  0  0  0
    5.0091    1.4625   17.7677 C   0  0  0  0  0  0  0  0  0  0  0  0
    5.9651    0.6446   17.3489 N   0  0  0  0  0  0  0  0  0  0  0  0
    6.5877   -0.1004   18.2677 C   0  0  0  0  0  0  0  0  0  0  0  0
    8.2698   -1.5523   22.8041 H   0  0  0  0  0  0  0  0  0  0  0  0
    9.3063   -2.0874   21.4381 H   0  0  0  0  0  0  0  0  0  0  0  0
   11.6011   -1.9240   21.7210 H   0  0  0  0  0  0  0  0  0  0  0  0
   13.3109    0.9290   24.4016 H   0  0  0  0  0  0  0  0  0  0  0  0
    9.0719    0.7360   23.9114 H   0  0  0  0  0  0  0  0  0  0  0  0
   10.0759    1.5762   26.0170 H   0  0  0  0  0  0  0  0  0  0  0  0
   11.8557    1.7934   26.1247 H   0  0  0  0  0  0  0  0  0  0  0  0
   10.6928    3.9349   26.0433 H   0  0  0  0  0  0  0  0  0  0  0  0
   11.7164    3.6975   24.5865 H   0  0  0  0  0  0  0  0  0  0  0  0
    9.9365    3.4801   24.4787 H   0  0  0  0  0  0  0  0  0  0  0  0
    6.8137   -1.5888   20.9269 H   0  0  0  0  0  0  0  0  0  0  0  0
    5.3442    0.2930   22.1920 H   0  0  0  0  0  0  0  0  0  0  0  0
    3.5446    1.7995   22.8379 H   0  0  0  0  0  0  0  0  0  0  0  0
    2.4076    3.1868   21.1578 H   0  0  0  0  0  0  0  0  0  0  0  0
    3.0495    3.0688   18.8123 H   0  0  0  0  0  0  0  0  0  0  0  0
    4.5086    2.0728   17.0306 H   0  0  0  0  0  0  0  0  0  0  0  0
    7.3572   -0.7763   17.9250 H   0  0  0  0  0  0  0  0  0  0  0  0
  1  2  2  0
  2  3  1  0
  2 13  1  0
  3  4  1  0
  3 24  1  1
  3 25  1  0
  4  5  2  0
  4  9  1  0
  5  6  1  0
  5 26  1  0
  6  7  1  0
  6  8  2  0
  8 10  1  0
  8 27  1  0
  9 10  2  0
  9 28  1  0
 10 11  1  0
 11 12  1  0
 11 29  1  1
 11 30  1  0
 12 31  1  1
 12 32  1  0
 12 33  1  0
 13 14  1  0
 13 34  1  0
 14 15  2  0
 14 23  1  0
 15 16  1  0
 15 20  1  0
 16 17  2  0
 16 35  1  0
 17 18  1  0
 17 36  1  0
 18 19  2  0
 18 37  1  0
 19 20  1  0
 19 38  1  0
 20 21  2  0
 21 22  1  0
 21 39  1  0
 22 23  2  0
 23 40  1  0
M  END
$$$$
