LIG(B-306)
     RDKit          3D

 34 37  0  0  1  0  0  0  0  0999 V2000
  -11.9920   -0.3330  -23.0794 C   0  0  0  0  0  0  0  0  0  0  0  0
   -6.4288   -0.9683  -19.0058 C   0  0  1  0  0  0  0  0  0  0  0  0
   -5.7474    0.2762  -18.5363 C   0  0  0  0  0  0  0  0  0  0  0  0
   -4.7525    1.0357  -19.1686 C   0  0  0  0  0  0  0  0  0  0  0  0
   -4.4771    2.0783  -18.3587 C   0  0  0  0  0  0  0  0  0  0  0  0
   -7.5977    0.0786  -20.9507 C   0  0  0  0  0  0  0  0  0  0  0  0
  -11.1885    0.7127  -23.5074 C   0  0  0  0  0  0  0  0  0  0  0  0
  -11.4849   -1.4333  -22.4203 C   0  0  0  0  0  0  0  0  0  0  0  0
  -10.1163   -1.5067  -22.1772 C   0  0  0  0  0  0  0  0  0  0  0  0
   -9.2988   -0.4880  -22.6261 C   0  0  0  0  0  0  0  0  0  0  0  0
   -9.8259    0.6263  -23.2622 C   0  0  0  0  0  0  0  0  0  0  0  0
   -8.7621    1.6250  -23.6044 C   0  0  1  0  0  0  0  0  0  0  0  0
   -7.4637    0.8322  -23.4406 C   0  0  1  0  0  0  0  0  0  0  0  0
   -7.8170   -0.2933  -22.4451 C   0  0  1  0  0  0  0  0  0  0  0  0
   -6.2745   -1.7205  -21.4324 C   0  0  0  0  0  0  0  0  0  0  0  0
   -6.9590   -1.4734  -22.5592 N   0  0  0  0  0  0  0  0  0  0  0  0
   -6.7164   -0.8362  -20.4349 N   0  0  0  0  0  0  0  0  0  0  0  0
   -6.0791    0.8213  -17.3987 N   0  0  0  0  0  0  0  0  0  0  0  0
   -5.4349   -2.5876  -21.2667 O   0  0  0  0  0  0  0  0  0  0  0  0
   -5.2661    1.9820  -17.2741 O   0  0  0  0  0  0  0  0  0  0  0  0
   -8.1762    0.9601  -20.3409 O   0  0  0  0  0  0  0  0  0  0  0  0
  -13.7086   -0.2558  -23.3740 Cl  0  0  0  0  0  0  0  0  0  0  0  0
   -5.7721   -1.8350  -18.8392 H   0  0  0  0  0  0  0  0  0  0  0  0
   -7.3681   -1.1079  -18.4507 H   0  0  0  0  0  0  0  0  0  0  0  0
   -4.2936    0.8255  -20.1233 H   0  0  0  0  0  0  0  0  0  0  0  0
   -3.7503    2.8545  -18.5480 H   0  0  0  0  0  0  0  0  0  0  0  0
  -11.6101    1.5673  -24.0154 H   0  0  0  0  0  0  0  0  0  0  0  0
  -12.1412   -2.2277  -22.0970 H   0  0  0  0  0  0  0  0  0  0  0  0
   -9.6994   -2.3488  -21.6447 H   0  0  0  0  0  0  0  0  0  0  0  0
   -8.8767    1.9831  -24.6381 H   0  0  0  0  0  0  0  0  0  0  0  0
   -8.7899    2.4813  -22.9145 H   0  0  0  0  0  0  0  0  0  0  0  0
   -7.1418    0.4110  -24.4044 H   0  0  0  0  0  0  0  0  0  0  0  0
   -6.6662    1.4725  -23.0356 H   0  0  0  0  0  0  0  0  0  0  0  0
   -6.8905   -2.0330  -23.3852 H   0  0  0  0  0  0  0  0  0  0  0  0
  1  7  2  0
  1  8  1  0
  1 22  1  0
  2  3  1  0
  2 17  1  0
  2 23  1  6
  2 24  1  0
  3  4  1  0
  3 18  2  0
  4  5  2  0
  4 25  1  0
  5 20  1  0
  5 26  1  0
  6 14  1  0
  6 17  1  0
  6 21  2  0
  7 11  1  0
  7 27  1  0
  8  9  2  0
  8 28  1  0
  9 10  1  0
  9 29  1  0
 10 11  2  0
 10 14  1  0
 11 12  1  0
 12 13  1  0
 12 30  1  6
 12 31  1  0
 13 14  1  0
 13 32  1  6
 13 33  1  0
 14 16  1  6
 15 16  1  0
 15 17  1  0
 15 19  2  0
 16 34  1  0
 18 20  1  0
M  END
$$$$
