LIG(A-305)
     RDKit          3D

 27 27  0  0  0  0  0  0  0  0999 V2000
    6.2613   -3.8616   19.8611 O   0  0  0  0  0  0  0  0  0  0  0  0
    7.1224   -3.4157   20.6051 C   0  0  0  0  0  0  0  0  0  0  0  0
    8.5314   -3.1539   20.1111 C   0  0  1  0  0  0  0  0  0  0  0  0
    6.8814   -3.1226   21.8991 N   0  0  0  0  0  0  0  0  0  0  0  0
    5.8863   -3.8334   22.7121 C   0  0  1  0  0  0  0  0  0  0  0  0
    6.5422   -4.3854   23.9752 C   0  0  1  0  0  0  0  0  0  0  0  0
    7.2013   -3.3035   24.7321 N   0  0  2  0  0  0  0  0  0  0  0  0
    8.2334   -2.6697   23.8921 C   0  0  1  0  0  0  0  0  0  0  0  0
    7.6065   -2.0796   22.6361 C   0  0  1  0  0  0  0  0  0  0  0  0
    7.7523   -3.7845   25.9962 C   0  0  1  0  0  0  0  0  0  0  0  0
    8.7791   -4.8237   25.8602 C   0  0  0  0  0  0  0  0  0  0  0  0
    9.5980   -5.6548   25.7043 C   0  0  0  0  0  0  0  0  0  0  0  0
    8.6038   -3.4243   19.0473 H   0  0  0  0  0  0  0  0  0  0  0  0
    8.7711   -2.0875   20.2354 H   0  0  0  0  0  0  0  0  0  0  0  0
    9.2421   -3.7597   20.6925 H   0  0  0  0  0  0  0  0  0  0  0  0
    5.0819   -3.1380   22.9936 H   0  0  0  0  0  0  0  0  0  0  0  0
    5.4647   -4.6644   22.1276 H   0  0  0  0  0  0  0  0  0  0  0  0
    5.7729   -4.8527   24.6076 H   0  0  0  0  0  0  0  0  0  0  0  0
    7.2925   -5.1389   23.6934 H   0  0  0  0  0  0  0  0  0  0  0  0
    6.5098   -2.6118   24.9405 H   0  0  0  0  0  0  0  0  0  0  0  0
    8.7237   -1.8678   24.4636 H   0  0  0  0  0  0  0  0  0  0  0  0
    8.9803   -3.4243   23.6044 H   0  0  0  0  0  0  0  0  0  0  0  0
    8.3977   -1.6638   21.9950 H   0  0  0  0  0  0  0  0  0  0  0  0
    6.9062   -1.2801   22.9195 H   0  0  0  0  0  0  0  0  0  0  0  0
    8.1985   -2.9284   26.5235 H   0  0  0  0  0  0  0  0  0  0  0  0
    6.9265   -4.1949   26.5960 H   0  0  0  0  0  0  0  0  0  0  0  0
   10.3354   -6.4032   25.5638 H   0  0  0  0  0  0  0  0  0  0  0  0
  1  2  2  0
  2  3  1  0
  2  4  1  0
  3 13  1  6
  3 14  1  0
  3 15  1  0
  4  5  1  0
  4  9  1  0
  5  6  1  0
  5 16  1  1
  5 17  1  0
  6  7  1  0
  6 18  1  1
  6 19  1  0
  7  8  1  0
  7 10  1  0
  7 20  1  1
  8  9  1  0
  8 21  1  1
  8 22  1  0
  9 23  1  6
  9 24  1  0
 10 11  1  0
 10 25  1  1
 10 26  1  0
 11 12  3  0
 12 27  1  0
M  CHG  1   7   1
M  END
$$$$
