LIG(A-307)
     RDKit          3D

 54 57  0  0  0  0  0  0  0  0999 V2000
    9.0395    1.4644   21.1779 O   0  0  0  0  0  0  0  0  0  0  0  0
    8.8498    0.3853   21.7297 C   0  0  0  0  0  0  0  0  0  0  0  0
    7.9379   -0.6518   21.0988 C   0  0  1  0  0  0  0  0  0  0  0  0
    7.0615   -0.0658   20.0131 C   0  0  0  0  0  0  0  0  0  0  0  0
    5.9544    0.7680   20.3385 C   0  0  0  0  0  0  0  0  0  0  0  0
    5.5727    1.0757   21.6716 C   0  0  0  0  0  0  0  0  0  0  0  0
    4.5106    1.8985   21.9270 C   0  0  0  0  0  0  0  0  0  0  0  0
    3.7792    2.4535   20.8862 C   0  0  0  0  0  0  0  0  0  0  0  0
    4.1100    2.1917   19.5871 C   0  0  0  0  0  0  0  0  0  0  0  0
    5.1971    1.3410   19.2787 C   0  0  0  0  0  0  0  0  0  0  0  0
    5.5948    1.0353   17.9526 C   0  0  0  0  0  0  0  0  0  0  0  0
    6.6219    0.2465   17.6512 N   0  0  0  0  0  0  0  0  0  0  0  0
    7.3232   -0.2785   18.6710 C   0  0  0  0  0  0  0  0  0  0  0  0
    9.3972    0.0902   22.9446 N   0  0  0  0  0  0  0  0  0  0  0  0
    9.2245   -1.1439   23.5904 C   0  0  0  0  0  0  0  0  0  0  0  0
    8.4128   -1.2653   24.7096 C   0  0  0  0  0  0  0  0  0  0  0  0
    8.3852   -2.4924   25.3424 C   0  0  0  0  0  0  0  0  0  0  0  0
    9.9516   -2.1487   23.0811 N   0  0  0  0  0  0  0  0  0  0  0  0
    9.9040   -3.3398   23.7039 C   0  0  0  0  0  0  0  0  0  0  0  0
    9.1343   -3.5611   24.8441 C   0  0  0  0  0  0  0  0  0  0  0  0
    9.1086   -4.8122   25.4559 N   0  0  0  0  0  0  0  0  0  0  0  0
    8.7100   -4.9525   26.8469 C   0  0  1  0  0  0  0  0  0  0  0  0
    9.8827   -5.9270   24.9275 C   0  0  1  0  0  0  0  0  0  0  0  0
   10.1871    1.1262   23.6235 C   0  0  1  0  0  0  0  0  0  0  0  0
   11.6270    1.1796   23.1702 C   0  0  0  0  0  0  0  0  0  0  0  0
   12.2311    0.0588   22.6069 C   0  0  0  0  0  0  0  0  0  0  0  0
   13.5079    0.1601   22.0866 C   0  0  0  0  0  0  0  0  0  0  0  0
   14.1530   -1.1756   21.1663 Cl  0  0  0  0  0  0  0  0  0  0  0  0
   14.2548    1.3092   22.2196 C   0  0  0  0  0  0  0  0  0  0  0  0
   13.6617    2.4220   22.7959 C   0  0  0  0  0  0  0  0  0  0  0  0
   12.3518    2.3617   23.2482 C   0  0  0  0  0  0  0  0  0  0  0  0
    8.5580   -1.4478   20.6608 H   0  0  0  0  0  0  0  0  0  0  0  0
    7.2931   -1.0780   21.8815 H   0  0  0  0  0  0  0  0  0  0  0  0
    6.1292    0.6538   22.4954 H   0  0  0  0  0  0  0  0  0  0  0  0
    4.2383    2.1184   22.9487 H   0  0  0  0  0  0  0  0  0  0  0  0
    2.9410    3.0982   21.1055 H   0  0  0  0  0  0  0  0  0  0  0  0
    3.5364    2.6383   18.7883 H   0  0  0  0  0  0  0  0  0  0  0  0
    5.0307    1.4683   17.1399 H   0  0  0  0  0  0  0  0  0  0  0  0
    8.1578   -0.9175   18.4229 H   0  0  0  0  0  0  0  0  0  0  0  0
    7.8263   -0.4335   25.0710 H   0  0  0  0  0  0  0  0  0  0  0  0
    7.7811   -2.6266   26.2275 H   0  0  0  0  0  0  0  0  0  0  0  0
   10.4856   -4.1574   23.3044 H   0  0  0  0  0  0  0  0  0  0  0  0
    8.7566   -6.0126   27.1372 H   0  0  0  0  0  0  0  0  0  0  0  0
    9.3901   -4.3679   27.4839 H   0  0  0  0  0  0  0  0  0  0  0  0
    7.6816   -4.5829   26.9725 H   0  0  0  0  0  0  0  0  0  0  0  0
    9.7215   -6.8160   25.5549 H   0  0  0  0  0  0  0  0  0  0  0  0
    9.5604   -6.1416   23.8980 H   0  0  0  0  0  0  0  0  0  0  0  0
   10.9512   -5.6653   24.9303 H   0  0  0  0  0  0  0  0  0  0  0  0
    9.7232    2.1037   23.4252 H   0  0  0  0  0  0  0  0  0  0  0  0
   10.1697    0.9247   24.7048 H   0  0  0  0  0  0  0  0  0  0  0  0
   11.7054   -0.8841   22.5766 H   0  0  0  0  0  0  0  0  0  0  0  0
   15.2802    1.3430   21.8824 H   0  0  0  0  0  0  0  0  0  0  0  0
   14.2221    3.3401   22.8931 H   0  0  0  0  0  0  0  0  0  0  0  0
   11.8902    3.2443   23.6659 H   0  0  0  0  0  0  0  0  0  0  0  0
  1  2  2  0
  2  3  1  0
  2 14  1  0
  3  4  1  0
  3 32  1  6
  3 33  1  0
  4  5  2  0
  4 13  1  0
  5  6  1  0
  5 10  1  0
  6  7  2  0
  6 34  1  0
  7  8  1  0
  7 35  1  0
  8  9  2  0
  8 36  1  0
  9 10  1  0
  9 37  1  0
 10 11  2  0
 11 12  1  0
 11 38  1  0
 12 13  2  0
 13 39  1  0
 14 15  1  0
 14 24  1  0
 15 16  2  0
 15 18  1  0
 16 17  1  0
 16 40  1  0
 17 20  2  0
 17 41  1  0
 18 19  2  0
 19 20  1  0
 19 42  1  0
 20 21  1  0
 21 22  1  0
 21 23  1  0
 22 43  1  1
 22 44  1  0
 22 45  1  0
 23 46  1  1
 23 47  1  0
 23 48  1  0
 24 25  1  0
 24 49  1  1
 24 50  1  0
 25 26  2  0
 25 31  1  0
 26 27  1  0
 26 51  1  0
 27 28  1  0
 27 29  2  0
 29 30  1  0
 29 52  1  0
 30 31  2  0
 30 53  1  0
 31 54  1  0
M  END
$$$$
