LIG(A-305)
     RDKit          3D

 47 49  0  0  0  0  0  0  0  0999 V2000
    6.5415    0.9701   16.8756 O   0  0  0  0  0  0  0  0  0  0  0  0
    5.9166    0.7292   17.9117 C   0  0  0  0  0  0  0  0  0  0  0  0
    6.2877   -0.2808   18.8367 C   0  0  0  0  0  0  0  0  0  0  0  0
    4.8568    1.5173   18.2788 N   0  0  0  0  0  0  0  0  0  0  0  0
    4.2069    1.4374   19.5039 C   0  0  0  0  0  0  0  0  0  0  0  0
    4.6419    0.4854   20.4529 C   0  0  0  0  0  0  0  0  0  0  0  0
    4.0561    0.5145   21.7350 C   0  0  0  0  0  0  0  0  0  0  0  0
    4.5791   -0.3685   22.6409 O   0  0  0  0  0  0  0  0  0  0  0  0
    4.0023   -0.4114   23.9450 C   0  0  1  0  0  0  0  0  0  0  0  0
    3.0392    1.4156   22.0261 C   0  0  0  0  0  0  0  0  0  0  0  0
    2.5962    2.2997   21.0581 C   0  0  0  0  0  0  0  0  0  0  0  0
    3.1780    2.3235   19.8040 C   0  0  0  0  0  0  0  0  0  0  0  0
    5.7088   -0.4427   20.0518 C   0  0  0  0  0  0  0  0  0  0  0  0
    6.1238   -1.6237   20.8638 C   0  0  0  0  0  0  0  0  0  0  0  0
    5.4057   -2.6167   20.9569 O   0  0  0  0  0  0  0  0  0  0  0  0
    7.2938   -1.5228   21.4987 N   0  0  0  0  0  0  0  0  0  0  0  0
    7.7239   -2.4858   22.4996 C   0  0  1  0  0  0  0  0  0  0  0  0
    9.2099   -2.4730   22.6905 C   0  0  1  0  0  0  0  0  0  0  0  0
    9.6330   -1.1010   22.7414 O   0  0  0  0  0  0  0  0  0  0  0  0
   10.9781   -0.8292   22.8032 C   0  0  0  0  0  0  0  0  0  0  0  0
   11.3193    0.4158   23.3681 C   0  0  0  0  0  0  0  0  0  0  0  0
   10.2594    1.1780   23.7822 O   0  0  0  0  0  0  0  0  0  0  0  0
   10.5016    2.5509   24.0961 C   0  0  1  0  0  0  0  0  0  0  0  0
   11.9719   -1.6533   22.2951 C   0  0  0  0  0  0  0  0  0  0  0  0
   13.2910   -1.2294   22.3149 C   0  0  0  0  0  0  0  0  0  0  0  0
   13.6272   -0.0084   22.8668 C   0  0  0  0  0  0  0  0  0  0  0  0
   12.6503    0.8127   23.4099 C   0  0  0  0  0  0  0  0  0  0  0  0
    7.0781   -0.9610   18.5561 H   0  0  0  0  0  0  0  0  0  0  0  0
    4.5288    2.1947   17.6176 H   0  0  0  0  0  0  0  0  0  0  0  0
    4.5258   -1.1635   24.5535 H   0  0  0  0  0  0  0  0  0  0  0  0
    4.0976    0.5758   24.4207 H   0  0  0  0  0  0  0  0  0  0  0  0
    2.9383   -0.6794   23.8666 H   0  0  0  0  0  0  0  0  0  0  0  0
    2.5937    1.4261   23.0098 H   0  0  0  0  0  0  0  0  0  0  0  0
    1.7872    2.9783   21.2845 H   0  0  0  0  0  0  0  0  0  0  0  0
    2.8348    3.0276   19.0604 H   0  0  0  0  0  0  0  0  0  0  0  0
    7.8970   -0.7565   21.2775 H   0  0  0  0  0  0  0  0  0  0  0  0
    7.2409   -2.2419   23.4574 H   0  0  0  0  0  0  0  0  0  0  0  0
    7.4158   -3.4921   22.1794 H   0  0  0  0  0  0  0  0  0  0  0  0
    9.4711   -2.9805   23.6308 H   0  0  0  0  0  0  0  0  0  0  0  0
    9.6998   -2.9850   21.8491 H   0  0  0  0  0  0  0  0  0  0  0  0
    9.5612    3.0271   24.4107 H   0  0  0  0  0  0  0  0  0  0  0  0
   11.2364    2.6163   24.9121 H   0  0  0  0  0  0  0  0  0  0  0  0
   10.8940    3.0665   23.2071 H   0  0  0  0  0  0  0  0  0  0  0  0
   11.7187   -2.6203   21.8862 H   0  0  0  0  0  0  0  0  0  0  0  0
   14.0623   -1.8585   21.8956 H   0  0  0  0  0  0  0  0  0  0  0  0
   14.6593    0.3094   22.8755 H   0  0  0  0  0  0  0  0  0  0  0  0
   12.9225    1.7548   23.8625 H   0  0  0  0  0  0  0  0  0  0  0  0
  1  2  2  0
  2  3  1  0
  2  4  1  0
  3 13  2  0
  3 28  1  0
  4  5  1  0
  4 29  1  0
  5  6  2  0
  5 12  1  0
  6  7  1  0
  6 13  1  0
  7  8  1  0
  7 10  2  0
  8  9  1  0
  9 30  1  1
  9 31  1  0
  9 32  1  0
 10 11  1  0
 10 33  1  0
 11 12  2  0
 11 34  1  0
 12 35  1  0
 13 14  1  0
 14 15  2  0
 14 16  1  0
 16 17  1  0
 16 36  1  0
 17 18  1  0
 17 37  1  1
 17 38  1  0
 18 19  1  0
 18 39  1  1
 18 40  1  0
 19 20  1  0
 20 21  2  0
 20 24  1  0
 21 22  1  0
 21 27  1  0
 22 23  1  0
 23 41  1  1
 23 42  1  0
 23 43  1  0
 24 25  2  0
 24 44  1  0
 25 26  1  0
 25 45  1  0
 26 27  2  0
 26 46  1  0
 27 47  1  0
M  END
$$$$
