LIG(A-305)
     RDKit          3D

 52 54  0  0  0  0  0  0  0  0999 V2000
   11.0774    5.0819   22.8868 N   0  0  0  0  0  0  0  0  0  0  0  0
    7.0672   -2.2531   20.8875 N   0  0  0  0  0  0  0  0  0  0  0  0
    8.9363   -1.8020   23.0193 N   0  0  2  0  0  0  0  0  0  0  0  0
   10.1095    5.7360   23.5319 C   0  0  0  0  0  0  0  0  0  0  0  0
   12.4814    0.9089   23.1029 C   0  0  0  0  0  0  0  0  0  0  0  0
    7.9372   -1.0721   20.8924 C   0  0  1  0  0  0  0  0  0  0  0  0
    6.0320   -3.9331   19.7937 O   0  0  0  0  0  0  0  0  0  0  0  0
   10.1744   -2.1020   23.7603 C   0  0  1  0  0  0  0  0  0  0  0  0
   12.3655    4.7909   23.4988 C   0  0  1  0  0  0  0  0  0  0  0  0
   11.4264    0.1190   23.6021 C   0  0  0  0  0  0  0  0  0  0  0  0
   13.4853   -1.0741   22.1860 C   0  0  0  0  0  0  0  0  0  0  0  0
   10.9905    2.2430   24.1250 C   0  0  0  0  0  0  0  0  0  0  0  0
   12.1684    2.2769   23.4339 C   0  0  0  0  0  0  0  0  0  0  0  0
    6.7252   -2.6710   22.2556 C   0  0  1  0  0  0  0  0  0  0  0  0
    6.7311   -2.9301   19.7666 C   0  0  0  0  0  0  0  0  0  0  0  0
   13.5173    0.2949   22.3989 C   0  0  0  0  0  0  0  0  0  0  0  0
    8.0053   -2.9580   23.0555 C   0  0  2  0  0  0  0  0  0  0  0  0
    9.2212   -1.4141   21.6153 C   0  0  2  0  0  0  0  0  0  0  0  0
    7.2760   -2.4092   18.4485 C   0  0  1  0  0  0  0  0  0  0  0  0
    8.8174    5.9170   22.7840 C   0  0  1  0  0  0  0  0  0  0  0  0
   10.5335    0.9540   24.2301 N   0  0  0  0  0  0  0  0  0  0  0  0
   10.2666    6.1530   24.6778 O   0  0  0  0  0  0  0  0  0  0  0  0
   11.3694   -1.2630   23.3661 C   0  0  0  0  0  0  0  0  0  0  0  0
   12.9524    3.4839   23.0078 C   0  0  2  0  0  0  0  0  0  0  0  0
   12.4273   -1.8381   22.6581 C   0  0  0  0  0  0  0  0  0  0  0  0
   10.9116    4.7805   21.9479 H   0  0  0  0  0  0  0  0  0  0  0  0
    8.4860   -1.0296   23.4671 H   0  0  0  0  0  0  0  0  0  0  0  0
    8.1635   -0.7756   19.8576 H   0  0  0  0  0  0  0  0  0  0  0  0
    7.4317   -0.2430   21.4092 H   0  0  0  0  0  0  0  0  0  0  0  0
    9.9804   -1.9392   24.8307 H   0  0  0  0  0  0  0  0  0  0  0  0
   10.4273   -3.1589   23.5900 H   0  0  0  0  0  0  0  0  0  0  0  0
   13.0641    5.6055   23.2571 H   0  0  0  0  0  0  0  0  0  0  0  0
   12.2340    4.7322   24.5893 H   0  0  0  0  0  0  0  0  0  0  0  0
   14.2911   -1.5509   21.6476 H   0  0  0  0  0  0  0  0  0  0  0  0
   10.4895    3.1092   24.5314 H   0  0  0  0  0  0  0  0  0  0  0  0
    6.1593   -1.8681   22.7506 H   0  0  0  0  0  0  0  0  0  0  0  0
    6.1099   -3.5819   22.2146 H   0  0  0  0  0  0  0  0  0  0  0  0
   14.3404    0.8835   22.0215 H   0  0  0  0  0  0  0  0  0  0  0  0
    7.7348   -3.1673   24.1009 H   0  0  0  0  0  0  0  0  0  0  0  0
    8.5079   -3.8361   22.6239 H   0  0  0  0  0  0  0  0  0  0  0  0
    9.7150   -2.2517   21.1008 H   0  0  0  0  0  0  0  0  0  0  0  0
    9.8853   -0.5372   21.6091 H   0  0  0  0  0  0  0  0  0  0  0  0
    6.9388   -3.0605   17.6287 H   0  0  0  0  0  0  0  0  0  0  0  0
    6.9087   -1.3863   18.2787 H   0  0  0  0  0  0  0  0  0  0  0  0
    8.3754   -2.4030   18.4832 H   0  0  0  0  0  0  0  0  0  0  0  0
    8.0981    6.4552   23.4187 H   0  0  0  0  0  0  0  0  0  0  0  0
    9.0026    6.4962   21.8673 H   0  0  0  0  0  0  0  0  0  0  0  0
    8.4065    4.9318   22.5184 H   0  0  0  0  0  0  0  0  0  0  0  0
    9.6917    0.6693   24.6895 H   0  0  0  0  0  0  0  0  0  0  0  0
   13.9750    3.3917   23.4023 H   0  0  0  0  0  0  0  0  0  0  0  0
   12.9842    3.5079   21.9085 H   0  0  0  0  0  0  0  0  0  0  0  0
   12.4218   -2.9022   22.4737 H   0  0  0  0  0  0  0  0  0  0  0  0
  1  4  1  0
  1  9  1  0
  1 26  1  0
  2  6  1  0
  2 14  1  0
  2 15  1  0
  3  8  1  0
  3 17  1  0
  3 18  1  0
  3 27  1  1
  4 20  1  0
  4 22  2  0
  5 10  2  0
  5 13  1  0
  5 16  1  0
  6 18  1  0
  6 28  1  6
  6 29  1  0
  7 15  2  0
  8 23  1  0
  8 30  1  1
  8 31  1  0
  9 24  1  0
  9 32  1  1
  9 33  1  0
 10 21  1  0
 10 23  1  0
 11 16  2  0
 11 25  1  0
 11 34  1  0
 12 13  2  0
 12 21  1  0
 12 35  1  0
 13 24  1  0
 14 17  1  0
 14 36  1  1
 14 37  1  0
 15 19  1  0
 16 38  1  0
 17 39  1  1
 17 40  1  0
 18 41  1  6
 18 42  1  0
 19 43  1  6
 19 44  1  0
 19 45  1  0
 20 46  1  1
 20 47  1  0
 20 48  1  0
 21 49  1  0
 23 25  2  0
 24 50  1  1
 24 51  1  0
 25 52  1  0
M  CHG  1   3   1
M  END
$$$$
