LIG(A-305)
     RDKit          3D

 33 34  0  0  0  0  0  0  0  0999 V2000
   26.0764  -10.3887    4.1085 C   0  0  1  0  0  0  0  0  0  0  0  0
   26.4315  -10.3167    5.6005 C   0  0  1  0  0  0  0  0  0  0  0  0
   27.9426  -10.8207    7.2044 C   0  0  1  0  0  0  0  0  0  0  0  0
   27.7366  -11.8126    8.3385 C   0  0  1  0  0  0  0  0  0  0  0  0
   27.0475  -13.4206    6.8716 C   0  0  1  0  0  0  0  0  0  0  0  0
   27.1464  -12.4837    5.6735 C   0  0  1  0  0  0  0  0  0  0  0  0
   23.4175   -9.4786    4.7096 C   0  0  0  0  0  0  0  0  0  0  0  0
   23.6956   -8.1836    4.3146 C   0  0  0  0  0  0  0  0  0  0  0  0
   23.0256   -7.1325    4.8956 C   0  0  0  0  0  0  0  0  0  0  0  0
   22.0747   -7.3564    5.8786 C   0  0  0  0  0  0  0  0  0  0  0  0
   21.8017   -8.6514    6.2757 C   0  0  0  0  0  0  0  0  0  0  0  0
   22.4776   -9.7185    5.6937 C   0  0  0  0  0  0  0  0  0  0  0  0
   27.3445  -11.1347    5.9805 N   0  0  1  0  0  0  0  0  0  0  0  0
   27.9235  -13.0967    7.8965 O   0  0  0  0  0  0  0  0  0  0  0  0
   24.3234  -10.8406    3.9406 S   0  0  0  0  0  0  0  0  0  0  0  0
   26.2517   -9.4091    3.6397 H   0  0  0  0  0  0  0  0  0  0  0  0
   26.7021  -11.1480    3.6164 H   0  0  0  0  0  0  0  0  0  0  0  0
   26.7754   -9.2952    5.8205 H   0  0  0  0  0  0  0  0  0  0  0  0
   25.5204  -10.5295    6.1789 H   0  0  0  0  0  0  0  0  0  0  0  0
   27.5410   -9.8506    7.5327 H   0  0  0  0  0  0  0  0  0  0  0  0
   29.0254  -10.7301    7.0330 H   0  0  0  0  0  0  0  0  0  0  0  0
   28.4572  -11.5982    9.1415 H   0  0  0  0  0  0  0  0  0  0  0  0
   26.7129  -11.7097    8.7273 H   0  0  0  0  0  0  0  0  0  0  0  0
   26.0207  -13.3783    7.2638 H   0  0  0  0  0  0  0  0  0  0  0  0
   27.2689  -14.4438    6.5336 H   0  0  0  0  0  0  0  0  0  0  0  0
   27.9898  -12.8172    5.0511 H   0  0  0  0  0  0  0  0  0  0  0  0
   26.2117  -12.5672    5.0997 H   0  0  0  0  0  0  0  0  0  0  0  0
   24.4370   -7.9977    3.5516 H   0  0  0  0  0  0  0  0  0  0  0  0
   23.2428   -6.1220    4.5825 H   0  0  0  0  0  0  0  0  0  0  0  0
   21.5519   -6.5263    6.3302 H   0  0  0  0  0  0  0  0  0  0  0  0
   21.0613   -8.8355    7.0402 H   0  0  0  0  0  0  0  0  0  0  0  0
   22.2687  -10.7299    6.0095 H   0  0  0  0  0  0  0  0  0  0  0  0
   28.0880  -10.9107    5.3504 H   0  0  0  0  0  0  0  0  0  0  0  0
  1  2  1  0
  1 15  1  0
  1 16  1  6
  1 17  1  0
  2 13  1  0
  2 18  1  1
  2 19  1  0
  3  4  1  0
  3 13  1  0
  3 20  1  1
  3 21  1  0
  4 14  1  0
  4 22  1  1
  4 23  1  0
  5  6  1  0
  5 14  1  0
  5 24  1  1
  5 25  1  0
  6 13  1  0
  6 26  1  6
  6 27  1  0
  7  8  2  0
  7 12  1  0
  7 15  1  0
  8  9  1  0
  8 28  1  0
  9 10  2  0
  9 29  1  0
 10 11  1  0
 10 30  1  0
 11 12  2  0
 11 31  1  0
 12 32  1  0
 13 33  1  6
M  CHG  1  13   1
M  END
$$$$
