LIG(A-305)
     RDKit          3D

 24 25  0  0  0  0  0  0  0  0999 V2000
   14.5074  -25.9524    4.2890 N   0  0  0  0  0  0  0  0  0  0  0  0
   15.9306  -25.6315    7.0169 C   0  0  1  0  0  0  0  0  0  0  0  0
   15.1274  -27.9124    7.7960 O   0  0  0  0  0  0  0  0  0  0  0  0
   16.0713  -27.6076    5.4180 C   0  0  1  0  0  0  0  0  0  0  0  0
   14.7973  -27.2104    4.7270 C   0  0  0  0  0  0  0  0  0  0  0  0
   13.2154  -26.0492    3.7341 C   0  0  0  0  0  0  0  0  0  0  0  0
   12.3875  -25.0411    3.1911 C   0  0  0  0  0  0  0  0  0  0  0  0
   11.1224  -25.4089    2.7872 C   0  0  0  0  0  0  0  0  0  0  0  0
   10.6642  -26.7469    2.8932 C   0  0  0  0  0  0  0  0  0  0  0  0
   11.4541  -27.7460    3.4122 C   0  0  0  0  0  0  0  0  0  0  0  0
   12.7422  -27.3851    3.8391 C   0  0  0  0  0  0  0  0  0  0  0  0
   13.7572  -28.1243    4.4651 N   0  0  0  0  0  0  0  0  0  0  0  0
   17.5264  -27.4998    7.4949 O   0  0  0  0  0  0  0  0  0  0  0  0
   16.1774  -27.2696    7.1019 S   0  0  1  0  0  0  0  0  0  0  0  0
   15.0863  -25.1399    4.3487 H   0  0  0  0  0  0  0  0  0  0  0  0
   14.8921  -25.4319    6.7143 H   0  0  0  0  0  0  0  0  0  0  0  0
   16.1181  -25.1810    8.0027 H   0  0  0  0  0  0  0  0  0  0  0  0
   16.6182  -25.1951    6.2775 H   0  0  0  0  0  0  0  0  0  0  0  0
   16.1964  -28.6926    5.2877 H   0  0  0  0  0  0  0  0  0  0  0  0
   16.8984  -27.0806    4.9198 H   0  0  0  0  0  0  0  0  0  0  0  0
   12.7327  -24.0221    3.0964 H   0  0  0  0  0  0  0  0  0  0  0  0
   10.4621  -24.6581    2.3789 H   0  0  0  0  0  0  0  0  0  0  0  0
    9.6667  -26.9880    2.5569 H   0  0  0  0  0  0  0  0  0  0  0  0
   11.0993  -28.7632    3.4880 H   0  0  0  0  0  0  0  0  0  0  0  0
  1  5  1  0
  1  6  1  0
  1 15  1  0
  2 14  1  0
  2 16  1  6
  2 17  1  0
  2 18  1  0
  3 14  2  0
  4  5  1  0
 14  4  1  6
  4 19  1  1
  4 20  1  0
  5 12  2  0
  6  7  2  0
  6 11  1  0
  7  8  1  0
  7 21  1  0
  8  9  2  0
  8 22  1  0
  9 10  1  0
  9 23  1  0
 10 11  2  0
 10 24  1  0
 11 12  1  0
 13 14  2  0
M  END
$$$$
