LIG(A-307)
     RDKit          3D

 44 47  0  0  1  0  0  0  0  0999 V2000
   14.1473   -1.5156   21.1220 Cl  0  0  0  0  0  0  0  0  0  0  0  0
   12.9923   -0.8021   22.2178 C   0  0  0  0  0  0  0  0  0  0  0  0
   11.6648   -1.1680   22.1206 C   0  0  0  0  0  0  0  0  0  0  0  0
   13.4169    0.1435   23.1256 C   0  0  0  0  0  0  0  0  0  0  0  0
   12.4905    0.7350   23.9688 C   0  0  0  0  0  0  0  0  0  0  0  0
   11.1410    0.3924   23.8820 C   0  0  0  0  0  0  0  0  0  0  0  0
   10.1735    1.0063   24.7316 N   0  0  0  0  0  0  0  0  0  0  0  0
   10.5844    1.8050   25.7503 C   0  0  0  0  0  0  0  0  0  0  0  0
   10.9022    2.9787   25.4970 O   0  0  0  0  0  0  0  0  0  0  0  0
   10.6619    1.2528   26.9681 N   0  0  0  0  0  0  0  0  0  0  0  0
   10.7155   -0.5562   22.9373 C   0  0  0  0  0  0  0  0  0  0  0  0
    9.2469   -0.8768   22.7386 C   0  0  1  0  0  0  0  0  0  0  0  0
    8.4394   -0.5863   24.0062 C   0  0  1  0  0  0  0  0  0  0  0  0
    8.7322    0.8200   24.4924 C   0  0  1  0  0  0  0  0  0  0  0  0
    8.6964   -0.0757   21.5581 C   0  0  0  0  0  0  0  0  0  0  0  0
    9.2107    0.9817   21.1846 O   0  0  0  0  0  0  0  0  0  0  0  0
    7.6050   -0.6228   20.9719 N   0  0  0  0  0  0  0  0  0  0  0  0
    6.8470   -0.0938   19.9104 C   0  0  0  0  0  0  0  0  0  0  0  0
    5.7292    0.7377   20.2238 C   0  0  0  0  0  0  0  0  0  0  0  0
    5.2710    0.9805   21.5452 C   0  0  0  0  0  0  0  0  0  0  0  0
    4.2038    1.8010   21.7800 C   0  0  0  0  0  0  0  0  0  0  0  0
    3.5438    2.4236   20.7281 C   0  0  0  0  0  0  0  0  0  0  0  0
    3.9404    2.2150   19.4388 C   0  0  0  0  0  0  0  0  0  0  0  0
    5.0331    1.3610   19.1489 C   0  0  0  0  0  0  0  0  0  0  0  0
    5.4776    1.0877   17.8313 C   0  0  0  0  0  0  0  0  0  0  0  0
    6.5064    0.3020   17.5396 N   0  0  0  0  0  0  0  0  0  0  0  0
    7.1659   -0.2632   18.5629 C   0  0  0  0  0  0  0  0  0  0  0  0
   11.3627   -1.9264   21.4135 H   0  0  0  0  0  0  0  0  0  0  0  0
   14.4595    0.4202   23.1791 H   0  0  0  0  0  0  0  0  0  0  0  0
   12.8144    1.4643   24.6965 H   0  0  0  0  0  0  0  0  0  0  0  0
   10.9923    1.7930   27.7420 H   0  0  0  0  0  0  0  0  0  0  0  0
   10.3894    0.3002   27.1034 H   0  0  0  0  0  0  0  0  0  0  0  0
    9.1515   -1.9475   22.5053 H   0  0  0  0  0  0  0  0  0  0  0  0
    7.3661   -0.6797   23.7845 H   0  0  0  0  0  0  0  0  0  0  0  0
    8.7163   -1.3081   24.7887 H   0  0  0  0  0  0  0  0  0  0  0  0
    8.1861    0.9972   25.4307 H   0  0  0  0  0  0  0  0  0  0  0  0
    8.3977    1.5406   23.7316 H   0  0  0  0  0  0  0  0  0  0  0  0
    7.3029   -1.5042   21.3350 H   0  0  0  0  0  0  0  0  0  0  0  0
    5.7733    0.5097   22.3774 H   0  0  0  0  0  0  0  0  0  0  0  0
    3.8701    1.9672   22.7936 H   0  0  0  0  0  0  0  0  0  0  0  0
    2.7095    3.0783   20.9322 H   0  0  0  0  0  0  0  0  0  0  0  0
    3.4164    2.7056   18.6319 H   0  0  0  0  0  0  0  0  0  0  0  0
    4.9451    1.5483   17.0124 H   0  0  0  0  0  0  0  0  0  0  0  0
    8.0072   -0.8972   18.3250 H   0  0  0  0  0  0  0  0  0  0  0  0
  1  2  1  0
  2  3  2  0
  2  4  1  0
  3 11  1  0
  3 28  1  0
  4  5  2  0
  4 29  1  0
  5  6  1  0
  5 30  1  0
  6  7  1  0
  6 11  2  0
  7  8  1  0
  7 14  1  0
  8  9  2  0
  8 10  1  0
 10 31  1  0
 10 32  1  0
 11 12  1  0
 12 13  1  0
 12 15  1  0
 12 33  1  6
 13 14  1  0
 13 34  1  6
 13 35  1  0
 14 36  1  1
 14 37  1  0
 15 16  2  0
 15 17  1  0
 17 18  1  0
 17 38  1  0
 18 19  2  0
 18 27  1  0
 19 20  1  0
 19 24  1  0
 20 21  2  0
 20 39  1  0
 21 22  1  0
 21 40  1  0
 22 23  2  0
 22 41  1  0
 23 24  1  0
 23 42  1  0
 24 25  2  0
 25 26  1  0
 25 43  1  0
 26 27  2  0
 27 44  1  0
M  END
$$$$
