LIG(A-306)
     RDKit          3D

 53 56  0  0  0  0  0  0  0  0999 V2000
    8.9554    1.4597   20.8934 O   0  0  0  0  0  0  0  0  0  0  0  0
    8.5640    0.5091   21.5558 C   0  0  0  0  0  0  0  0  0  0  0  0
    7.5573   -0.4724   20.9806 C   0  0  1  0  0  0  0  0  0  0  0  0
    6.7386    0.1029   19.8430 C   0  0  0  0  0  0  0  0  0  0  0  0
    5.6573    0.9958   20.0953 C   0  0  0  0  0  0  0  0  0  0  0  0
    5.2557    1.3876   21.4018 C   0  0  0  0  0  0  0  0  0  0  0  0
    4.2274    2.2672   21.5871 C   0  0  0  0  0  0  0  0  0  0  0  0
    3.5428    2.7982   20.4987 C   0  0  0  0  0  0  0  0  0  0  0  0
    3.8834    2.4445   19.2250 C   0  0  0  0  0  0  0  0  0  0  0  0
    4.9496    1.5396   18.9888 C   0  0  0  0  0  0  0  0  0  0  0  0
    5.3733    1.1531   17.6952 C   0  0  0  0  0  0  0  0  0  0  0  0
    6.3764    0.3160   17.4616 N   0  0  0  0  0  0  0  0  0  0  0  0
    7.0230   -0.1892   18.5208 C   0  0  0  0  0  0  0  0  0  0  0  0
    8.9978    0.3007   22.8332 N   0  0  0  0  0  0  0  0  0  0  0  0
   10.0508    1.1631   23.3741 C   0  0  1  0  0  0  0  0  0  0  0  0
   11.3477    0.4350   23.6197 C   0  0  0  0  0  0  0  0  0  0  0  0
   12.0429   -0.1403   22.5624 C   0  0  0  0  0  0  0  0  0  0  0  0
   13.2107   -0.8337   22.8097 C   0  0  0  0  0  0  0  0  0  0  0  0
   14.0742   -1.5324   21.4702 Cl  0  0  0  0  0  0  0  0  0  0  0  0
   13.7115   -0.9828   24.0856 C   0  0  0  0  0  0  0  0  0  0  0  0
   13.0193   -0.4095   25.1410 C   0  0  0  0  0  0  0  0  0  0  0  0
   11.8484    0.2949   24.9066 C   0  0  0  0  0  0  0  0  0  0  0  0
    8.4215   -0.6589   23.7167 C   0  0  0  0  0  0  0  0  0  0  0  0
    7.4227   -0.2685   24.5994 C   0  0  0  0  0  0  0  0  0  0  0  0
    6.7124   -1.2247   25.2940 C   0  0  0  0  0  0  0  0  0  0  0  0
    8.6810   -2.0173   23.5588 C   0  0  0  0  0  0  0  0  0  0  0  0
    8.0026   -2.9616   24.2263 N   0  0  0  0  0  0  0  0  0  0  0  0
    7.0358   -2.5694   25.0779 C   0  0  0  0  0  0  0  0  0  0  0  0
    6.3666   -3.6067   25.7430 N   0  0  0  0  0  0  0  0  0  0  0  0
    5.3426   -3.5153   26.6347 C   0  0  0  0  0  0  0  0  0  0  0  0
    4.6181   -2.5215   26.7312 O   0  0  0  0  0  0  0  0  0  0  0  0
    5.1579   -4.7190   27.5098 C   0  0  1  0  0  0  0  0  0  0  0  0
    8.1021   -1.3524   20.6080 H   0  0  0  0  0  0  0  0  0  0  0  0
    6.8711   -0.7790   21.7839 H   0  0  0  0  0  0  0  0  0  0  0  0
    5.7713    0.9835   22.2604 H   0  0  0  0  0  0  0  0  0  0  0  0
    3.9430    2.5535   22.5889 H   0  0  0  0  0  0  0  0  0  0  0  0
    2.7351    3.4960   20.6628 H   0  0  0  0  0  0  0  0  0  0  0  0
    3.3363    2.8572   18.3902 H   0  0  0  0  0  0  0  0  0  0  0  0
    4.8481    1.5644   16.8459 H   0  0  0  0  0  0  0  0  0  0  0  0
    7.8306   -0.8796   18.3271 H   0  0  0  0  0  0  0  0  0  0  0  0
   10.2373    1.9777   22.6588 H   0  0  0  0  0  0  0  0  0  0  0  0
    9.7010    1.5854   24.3277 H   0  0  0  0  0  0  0  0  0  0  0  0
   11.6714   -0.0453   21.5527 H   0  0  0  0  0  0  0  0  0  0  0  0
   14.6235   -1.5346   24.2591 H   0  0  0  0  0  0  0  0  0  0  0  0
   13.3932   -0.5119   26.1490 H   0  0  0  0  0  0  0  0  0  0  0  0
   11.3192    0.7403   25.7359 H   0  0  0  0  0  0  0  0  0  0  0  0
    7.2034    0.7794   24.7411 H   0  0  0  0  0  0  0  0  0  0  0  0
    5.9301   -0.9446   25.9839 H   0  0  0  0  0  0  0  0  0  0  0  0
    9.4577   -2.3219   22.8730 H   0  0  0  0  0  0  0  0  0  0  0  0
    6.6824   -4.5325   25.5355 H   0  0  0  0  0  0  0  0  0  0  0  0
    4.3157   -4.5479   28.1965 H   0  0  0  0  0  0  0  0  0  0  0  0
    4.9475   -5.5985   26.8836 H   0  0  0  0  0  0  0  0  0  0  0  0
    6.0752   -4.8937   28.0912 H   0  0  0  0  0  0  0  0  0  0  0  0
  1  2  2  0
  2  3  1  0
  2 14  1  0
  3  4  1  0
  3 33  1  6
  3 34  1  0
  4  5  2  0
  4 13  1  0
  5  6  1  0
  5 10  1  0
  6  7  2  0
  6 35  1  0
  7  8  1  0
  7 36  1  0
  8  9  2  0
  8 37  1  0
  9 10  1  0
  9 38  1  0
 10 11  2  0
 11 12  1  0
 11 39  1  0
 12 13  2  0
 13 40  1  0
 14 15  1  0
 14 23  1  0
 15 16  1  0
 15 41  1  6
 15 42  1  0
 16 17  2  0
 16 22  1  0
 17 18  1  0
 17 43  1  0
 18 19  1  0
 18 20  2  0
 20 21  1  0
 20 44  1  0
 21 22  2  0
 21 45  1  0
 22 46  1  0
 23 24  2  0
 23 26  1  0
 24 25  1  0
 24 47  1  0
 25 28  2  0
 25 48  1  0
 26 27  2  0
 26 49  1  0
 27 28  1  0
 28 29  1  0
 29 30  1  0
 29 50  1  0
 30 31  2  0
 30 32  1  0
 32 51  1  1
 32 52  1  0
 32 53  1  0
M  END
$$$$
