LIG(A-306)
     RDKit          3D

 40 43  0  0  1  0  0  0  0  0999 V2000
   13.8574   -1.6466   21.4362 Cl  0  0  0  0  0  0  0  0  0  0  0  0
   12.5386   -1.0131   22.3657 C   0  0  0  0  0  0  0  0  0  0  0  0
   12.7440   -0.0349   23.3329 C   0  0  0  0  0  0  0  0  0  0  0  0
   14.3425    0.5139   23.7247 Cl  0  0  0  0  0  0  0  0  0  0  0  0
   11.6715    0.4999   24.0210 C   0  0  0  0  0  0  0  0  0  0  0  0
   11.2587   -1.4526   22.0884 C   0  0  0  0  0  0  0  0  0  0  0  0
   10.1602   -0.9120   22.7514 C   0  0  0  0  0  0  0  0  0  0  0  0
   10.3776    0.0644   23.7387 C   0  0  0  0  0  0  0  0  0  0  0  0
    9.3151    0.5834   24.4568 N   0  0  0  0  0  0  0  0  0  0  0  0
    7.9363    0.1322   24.2796 C   0  0  1  0  0  0  0  0  0  0  0  0
    7.9008   -1.2727   23.7035 C   0  0  1  0  0  0  0  0  0  0  0  0
    8.7484   -1.3390   22.4071 C   0  0  1  0  0  0  0  0  0  0  0  0
    8.2394   -0.3806   21.3272 C   0  0  0  0  0  0  0  0  0  0  0  0
    8.9263    0.5490   20.8989 O   0  0  0  0  0  0  0  0  0  0  0  0
    6.9509   -0.5544   20.9827 N   0  0  0  0  0  0  0  0  0  0  0  0
    6.2672   -0.1296   19.8354 C   0  0  0  0  0  0  0  0  0  0  0  0
    6.7686   -0.1398   18.5346 C   0  0  0  0  0  0  0  0  0  0  0  0
    6.2284    0.4907   17.4853 N   0  0  0  0  0  0  0  0  0  0  0  0
    5.1486    1.2192   17.7044 C   0  0  0  0  0  0  0  0  0  0  0  0
    5.1092    0.6757   20.0710 C   0  0  0  0  0  0  0  0  0  0  0  0
    4.6202    0.9450   21.3756 C   0  0  0  0  0  0  0  0  0  0  0  0
    3.6569    1.8855   21.5337 C   0  0  0  0  0  0  0  0  0  0  0  0
    3.2927    2.2228   22.7969 F   0  0  0  0  0  0  0  0  0  0  0  0
    4.5458    1.3820   18.9734 C   0  0  0  0  0  0  0  0  0  0  0  0
    3.5095    2.3137   19.2195 C   0  0  0  0  0  0  0  0  0  0  0  0
    3.0766    2.5600   20.4892 C   0  0  0  0  0  0  0  0  0  0  0  0
   11.8354    1.2543   24.7763 H   0  0  0  0  0  0  0  0  0  0  0  0
   11.1083   -2.2248   21.3485 H   0  0  0  0  0  0  0  0  0  0  0  0
    9.4061    1.5526   24.6860 H   0  0  0  0  0  0  0  0  0  0  0  0
    7.4272    0.1356   25.2547 H   0  0  0  0  0  0  0  0  0  0  0  0
    7.4176    0.8173   23.5928 H   0  0  0  0  0  0  0  0  0  0  0  0
    8.3091   -1.9788   24.4415 H   0  0  0  0  0  0  0  0  0  0  0  0
    6.8604   -1.5448   23.4723 H   0  0  0  0  0  0  0  0  0  0  0  0
    8.7500   -2.3690   22.0207 H   0  0  0  0  0  0  0  0  0  0  0  0
    6.3985   -1.0622   21.6436 H   0  0  0  0  0  0  0  0  0  0  0  0
    7.6714   -0.7058   18.3585 H   0  0  0  0  0  0  0  0  0  0  0  0
    4.6977    1.7221   16.8616 H   0  0  0  0  0  0  0  0  0  0  0  0
    5.0092    0.4092   22.2289 H   0  0  0  0  0  0  0  0  0  0  0  0
    3.0554    2.8368   18.3909 H   0  0  0  0  0  0  0  0  0  0  0  0
    2.2882    3.2757   20.6699 H   0  0  0  0  0  0  0  0  0  0  0  0
  1  2  1  0
  2  3  1  0
  2  6  2  0
  3  4  1  0
  3  5  2  0
  5  8  1  0
  5 27  1  0
  6  7  1  0
  6 28  1  0
  7  8  2  0
  7 12  1  0
  8  9  1  0
  9 10  1  0
  9 29  1  0
 10 11  1  0
 10 30  1  1
 10 31  1  0
 11 12  1  0
 11 32  1  1
 11 33  1  0
 12 13  1  0
 12 34  1  6
 13 14  2  0
 13 15  1  0
 15 16  1  0
 15 35  1  0
 16 17  2  0
 16 20  1  0
 17 18  1  0
 17 36  1  0
 18 19  2  0
 19 24  1  0
 19 37  1  0
 20 21  2  0
 20 24  1  0
 21 22  1  0
 21 38  1  0
 22 23  1  0
 22 26  2  0
 24 25  2  0
 25 26  1  0
 25 39  1  0
 26 40  1  0
M  END
$$$$
