LIG(A-307)
     RDKit          3D

 44 47  0  0  1  0  0  0  0  0999 V2000
    8.9465    1.1575   21.2183 O   0  0  0  0  0  0  0  0  0  0  0  0
    8.7425    0.0765   21.7593 C   0  0  0  0  0  0  0  0  0  0  0  0
    7.7158   -0.8887   21.1601 C   0  0  1  0  0  0  0  0  0  0  0  0
    7.0000   -0.2889   20.0529 N   0  0  0  0  0  0  0  0  0  0  0  0
    5.8809    0.4859   20.0656 C   0  0  0  0  0  0  0  0  0  0  0  0
    5.0945    1.0159   21.0763 C   0  0  0  0  0  0  0  0  0  0  0  0
    4.0445    1.8467   20.7090 C   0  0  0  0  0  0  0  0  0  0  0  0
    3.7858    2.1225   19.3679 C   0  0  0  0  0  0  0  0  0  0  0  0
    4.5701    1.5766   18.3622 C   0  0  0  0  0  0  0  0  0  0  0  0
    5.6322    0.7528   18.7205 C   0  0  0  0  0  0  0  0  0  0  0  0
    6.5954    0.1289   17.9618 N   0  0  0  0  0  0  0  0  0  0  0  0
    7.4163   -0.4859   18.7740 N   0  0  0  0  0  0  0  0  0  0  0  0
    9.3803   -0.2693   22.9145 N   0  0  0  0  0  0  0  0  0  0  0  0
    9.0713   -1.5073   23.6915 C   0  0  1  0  0  0  0  0  0  0  0  0
    9.4476   -2.8233   23.0997 C   0  0  1  0  0  0  0  0  0  0  0  0
   10.1963   -2.2901   24.2808 C   0  0  2  0  0  0  0  0  0  0  0  0
   10.3380    0.6999   23.5257 C   0  0  1  0  0  0  0  0  0  0  0  0
   10.0546    0.9919   24.9996 C   0  0  1  0  0  0  0  0  0  0  0  0
   11.7801    0.5931   23.0490 C   0  0  0  0  0  0  0  0  0  0  0  0
   12.6249    1.6912   23.1702 C   0  0  0  0  0  0  0  0  0  0  0  0
   13.9450    1.6184   22.7565 C   0  0  0  0  0  0  0  0  0  0  0  0
   14.4413    0.4484   22.2247 C   0  0  0  0  0  0  0  0  0  0  0  0
   13.6145   -0.6477   22.0916 C   0  0  0  0  0  0  0  0  0  0  0  0
   12.2904   -0.5749   22.4962 C   0  0  0  0  0  0  0  0  0  0  0  0
    8.2385   -1.7878   20.8017 H   0  0  0  0  0  0  0  0  0  0  0  0
    6.9938   -1.1709   21.9406 H   0  0  0  0  0  0  0  0  0  0  0  0
    5.2917    0.7904   22.1140 H   0  0  0  0  0  0  0  0  0  0  0  0
    3.4197    2.2850   21.4731 H   0  0  0  0  0  0  0  0  0  0  0  0
    2.9623    2.7711   19.1075 H   0  0  0  0  0  0  0  0  0  0  0  0
    4.3606    1.7866   17.3237 H   0  0  0  0  0  0  0  0  0  0  0  0
    8.1387   -1.4896   24.2746 H   0  0  0  0  0  0  0  0  0  0  0  0
    8.7807   -3.6901   23.2166 H   0  0  0  0  0  0  0  0  0  0  0  0
    9.9330   -2.8645   22.1134 H   0  0  0  0  0  0  0  0  0  0  0  0
   10.0797   -2.7646   25.2663 H   0  0  0  0  0  0  0  0  0  0  0  0
   11.2320   -1.9389   24.1632 H   0  0  0  0  0  0  0  0  0  0  0  0
   10.0250    1.6440   23.0558 H   0  0  0  0  0  0  0  0  0  0  0  0
   10.7957    1.7099   25.3807 H   0  0  0  0  0  0  0  0  0  0  0  0
    9.0456    1.4180   25.1014 H   0  0  0  0  0  0  0  0  0  0  0  0
   10.1183    0.0579   25.5772 H   0  0  0  0  0  0  0  0  0  0  0  0
   12.2475    2.6112   23.5915 H   0  0  0  0  0  0  0  0  0  0  0  0
   14.5872    2.4816   22.8512 H   0  0  0  0  0  0  0  0  0  0  0  0
   15.4738    0.3897   21.9133 H   0  0  0  0  0  0  0  0  0  0  0  0
   13.9996   -1.5650   21.6710 H   0  0  0  0  0  0  0  0  0  0  0  0
   11.6486   -1.4357   22.3804 H   0  0  0  0  0  0  0  0  0  0  0  0
  1  2  2  0
  2  3  1  0
  2 13  1  0
  3  4  1  0
  3 25  1  6
  3 26  1  0
  4  5  1  0
  4 12  1  0
  5  6  2  0
  5 10  1  0
  6  7  1  0
  6 27  1  0
  7  8  2  0
  7 28  1  0
  8  9  1  0
  8 29  1  0
  9 10  2  0
  9 30  1  0
 10 11  1  0
 11 12  2  0
 13 14  1  0
 13 17  1  0
 14 15  1  0
 14 16  1  0
 14 31  1  1
 15 16  1  0
 15 32  1  1
 15 33  1  0
 16 34  1  1
 16 35  1  0
 17 18  1  0
 17 19  1  0
 17 36  1  6
 18 37  1  1
 18 38  1  0
 18 39  1  0
 19 20  2  0
 19 24  1  0
 20 21  1  0
 20 40  1  0
 21 22  2  0
 21 41  1  0
 22 23  1  0
 22 42  1  0
 23 24  2  0
 23 43  1  0
 24 44  1  0
M  END
$$$$
