LIG(A-307)
     RDKit          3D

 37 39  0  0  0  0  0  0  0  0999 V2000
    9.0411    1.0477   21.3853 O   0  0  0  0  0  0  0  0  0  0  0  0
    8.8632   -0.0743   21.8413 C   0  0  0  0  0  0  0  0  0  0  0  0
    7.7584   -0.9635   21.2680 C   0  0  1  0  0  0  0  0  0  0  0  0
    7.1036   -0.3326   20.1408 N   0  0  0  0  0  0  0  0  0  0  0  0
    5.9805    0.4352   20.1175 C   0  0  0  0  0  0  0  0  0  0  0  0
    5.1252    0.9131   21.0983 C   0  0  0  0  0  0  0  0  0  0  0  0
    4.0642    1.7150   20.6960 C   0  0  0  0  0  0  0  0  0  0  0  0
    3.8645    2.0149   19.3509 C   0  0  0  0  0  0  0  0  0  0  0  0
    4.7258    1.5300   18.3752 C   0  0  0  0  0  0  0  0  0  0  0  0
    5.8038    0.7422   18.7705 C   0  0  0  0  0  0  0  0  0  0  0  0
    6.8281    0.1673   18.0517 N   0  0  0  0  0  0  0  0  0  0  0  0
    7.6000   -0.4716   18.8850 N   0  0  0  0  0  0  0  0  0  0  0  0
    9.6130   -0.5562   22.8615 N   0  0  0  0  0  0  0  0  0  0  0  0
    9.6210   -1.9392   23.3225 C   0  0  1  0  0  0  0  0  0  0  0  0
   10.4626    0.3639   23.6337 C   0  0  1  0  0  0  0  0  0  0  0  0
   11.8687    0.5061   23.0950 C   0  0  0  0  0  0  0  0  0  0  0  0
   12.4451   -0.4888   22.3092 C   0  0  0  0  0  0  0  0  0  0  0  0
   13.7362   -0.3196   21.8646 C   0  0  0  0  0  0  0  0  0  0  0  0
   14.2845   -1.2946   21.0927 F   0  0  0  0  0  0  0  0  0  0  0  0
   14.4960    0.7765   22.1607 C   0  0  0  0  0  0  0  0  0  0  0  0
   13.9226    1.7664   22.9396 C   0  0  0  0  0  0  0  0  0  0  0  0
   12.6225    1.6322   23.4002 C   0  0  0  0  0  0  0  0  0  0  0  0
    8.2003   -1.9155   20.9383 H   0  0  0  0  0  0  0  0  0  0  0  0
    7.0123   -1.1578   22.0525 H   0  0  0  0  0  0  0  0  0  0  0  0
    5.2784    0.6705   22.1394 H   0  0  0  0  0  0  0  0  0  0  0  0
    3.3852    2.1110   21.4366 H   0  0  0  0  0  0  0  0  0  0  0  0
    3.0277    2.6336   19.0622 H   0  0  0  0  0  0  0  0  0  0  0  0
    4.5630    1.7590   17.3323 H   0  0  0  0  0  0  0  0  0  0  0  0
   10.3227   -2.0418   24.1634 H   0  0  0  0  0  0  0  0  0  0  0  0
    8.6103   -2.2216   23.6520 H   0  0  0  0  0  0  0  0  0  0  0  0
    9.9360   -2.5980   22.4998 H   0  0  0  0  0  0  0  0  0  0  0  0
    9.9892    1.3569   23.6294 H   0  0  0  0  0  0  0  0  0  0  0  0
   10.5246   -0.0083   24.6669 H   0  0  0  0  0  0  0  0  0  0  0  0
   11.8881   -1.3780   22.0532 H   0  0  0  0  0  0  0  0  0  0  0  0
   15.5096    0.8674   21.7993 H   0  0  0  0  0  0  0  0  0  0  0  0
   14.4921    2.6492   23.1900 H   0  0  0  0  0  0  0  0  0  0  0  0
   12.1890    2.4147   24.0054 H   0  0  0  0  0  0  0  0  0  0  0  0
  1  2  2  0
  2  3  1  0
  2 13  1  0
  3  4  1  0
  3 23  1  6
  3 24  1  0
  4  5  1  0
  4 12  1  0
  5  6  2  0
  5 10  1  0
  6  7  1  0
  6 25  1  0
  7  8  2  0
  7 26  1  0
  8  9  1  0
  8 27  1  0
  9 10  2  0
  9 28  1  0
 10 11  1  0
 11 12  2  0
 13 14  1  0
 13 15  1  0
 14 29  1  1
 14 30  1  0
 14 31  1  0
 15 16  1  0
 15 32  1  1
 15 33  1  0
 16 17  2  0
 16 22  1  0
 17 18  1  0
 17 34  1  0
 18 19  1  0
 18 20  2  0
 20 21  1  0
 20 35  1  0
 21 22  2  0
 21 36  1  0
 22 37  1  0
M  END
$$$$
