LIG(A-305)
     RDKit          3D

 15 15  0  0  0  0  0  0  0  0999 V2000
    6.1584   -5.1322   19.7104 N   0  0  1  0  0  0  0  0  0  0  0  0
    7.0194   -4.2513   20.0774 C   0  0  1  0  0  0  0  0  0  0  0  0
    6.6245   -3.3522   21.1574 C   0  0  0  0  0  0  0  0  0  0  0  0
    7.4236   -2.4002   21.6813 N   0  0  0  0  0  0  0  0  0  0  0  0
    6.7157   -1.7552   22.6523 C   0  0  0  0  0  0  0  0  0  0  0  0
    5.5007   -2.3391   22.6814 C   0  0  0  0  0  0  0  0  0  0  0  0
    5.4326   -3.3441   21.7444 N   0  0  0  0  0  0  0  0  0  0  0  0
    6.5813   -5.7607   19.0576 H   0  0  0  0  0  0  0  0  0  0  0  0
    5.8439   -5.6441   20.5099 H   0  0  0  0  0  0  0  0  0  0  0  0
    5.3796   -4.6773   19.2785 H   0  0  0  0  0  0  0  0  0  0  0  0
    7.9236   -4.7860   20.4038 H   0  0  0  0  0  0  0  0  0  0  0  0
    7.2564   -3.6323   19.1994 H   0  0  0  0  0  0  0  0  0  0  0  0
    8.3644   -2.2029   21.4061 H   0  0  0  0  0  0  0  0  0  0  0  0
    7.0592   -0.9408   23.2729 H   0  0  0  0  0  0  0  0  0  0  0  0
    4.6963   -2.0581   23.3450 H   0  0  0  0  0  0  0  0  0  0  0  0
  1  2  1  0
  1  8  1  6
  1  9  1  0
  1 10  1  0
  2  3  1  0
  2 11  1  1
  2 12  1  0
  3  4  1  0
  3  7  2  0
  4  5  1  0
  4 13  1  0
  5  6  2  0
  5 14  1  0
  6  7  1  0
  6 15  1  0
M  CHG  1   1   1
M  END
$$$$
