LIG(A-305)
     RDKit          3D

 49 51  0  0  0  0  0  0  0  0999 V2000
    9.2342   -0.7451   22.4971 N   0  0  0  0  0  0  0  0  0  0  0  0
    6.5651    0.6356   17.6500 N   0  0  0  0  0  0  0  0  0  0  0  0
    7.6134   -5.4299   27.0193 C   0  0  1  0  0  0  0  0  0  0  0  0
   13.2832    0.1331   23.1300 C   0  0  0  0  0  0  0  0  0  0  0  0
    5.4411    1.3215   17.8970 C   0  0  0  0  0  0  0  0  0  0  0  0
    8.7243   -3.5079   25.0202 C   0  0  1  0  0  0  0  0  0  0  0  0
   12.3112    0.6881   23.9489 C   0  0  0  0  0  0  0  0  0  0  0  0
    5.4732    0.7597   20.2090 C   0  0  0  0  0  0  0  0  0  0  0  0
    8.4133   -1.5150   23.4471 C   0  0  1  0  0  0  0  0  0  0  0  0
   11.5872   -1.1750   22.0211 C   0  0  0  0  0  0  0  0  0  0  0  0
   10.6122   -0.5720   22.8140 C   0  0  0  0  0  0  0  0  0  0  0  0
    9.0514   -5.5409   26.5243 C   0  0  1  0  0  0  0  0  0  0  0  0
    7.2803   -3.4170   25.5312 C   0  0  1  0  0  0  0  0  0  0  0  0
    4.8591    1.4076   19.1530 C   0  0  0  0  0  0  0  0  0  0  0  0
    9.2074   -4.9589   25.1163 C   0  0  1  0  0  0  0  0  0  0  0  0
    7.1204   -3.9889   26.9413 C   0  0  1  0  0  0  0  0  0  0  0  0
    7.1422    0.0086   18.6780 C   0  0  0  0  0  0  0  0  0  0  0  0
    8.6272   -0.0812   21.4040 C   0  0  0  0  0  0  0  0  0  0  0  0
   12.9052   -0.8000   22.1900 C   0  0  0  0  0  0  0  0  0  0  0  0
    7.3942   -0.5162   21.0411 N   0  0  0  0  0  0  0  0  0  0  0  0
    9.2062    0.8468   20.8520 O   0  0  0  0  0  0  0  0  0  0  0  0
    8.8713   -2.9590   23.5902 C   0  0  2  0  0  0  0  0  0  0  0  0
   10.9782    0.3351   23.8010 C   0  0  0  0  0  0  0  0  0  0  0  0
    6.6472    0.0517   19.9840 C   0  0  0  0  0  0  0  0  0  0  0  0
   14.1202   -1.5120   21.1631 Cl  0  0  0  0  0  0  0  0  0  0  0  0
    6.9678   -6.0656   26.3957 H   0  0  0  0  0  0  0  0  0  0  0  0
    7.5648   -5.7710   28.0640 H   0  0  0  0  0  0  0  0  0  0  0  0
   14.3178    0.4272   23.2275 H   0  0  0  0  0  0  0  0  0  0  0  0
    4.9633    1.8342   17.0753 H   0  0  0  0  0  0  0  0  0  0  0  0
    9.3558   -2.8969   25.6820 H   0  0  0  0  0  0  0  0  0  0  0  0
   12.5948    1.4015   24.7086 H   0  0  0  0  0  0  0  0  0  0  0  0
    5.0442    0.8035   21.1992 H   0  0  0  0  0  0  0  0  0  0  0  0
    8.4690   -1.0298   24.4327 H   0  0  0  0  0  0  0  0  0  0  0  0
    7.3713   -1.5106   23.0945 H   0  0  0  0  0  0  0  0  0  0  0  0
   11.3170   -1.9213   21.2886 H   0  0  0  0  0  0  0  0  0  0  0  0
    9.7098   -4.9912   27.2131 H   0  0  0  0  0  0  0  0  0  0  0  0
    9.3425   -6.6015   26.5069 H   0  0  0  0  0  0  0  0  0  0  0  0
    6.9762   -2.3599   25.5428 H   0  0  0  0  0  0  0  0  0  0  0  0
    6.6279   -3.9787   24.8467 H   0  0  0  0  0  0  0  0  0  0  0  0
    3.9478    1.9675   19.3027 H   0  0  0  0  0  0  0  0  0  0  0  0
    8.6221   -5.5720   24.4151 H   0  0  0  0  0  0  0  0  0  0  0  0
   10.2705   -4.9954   24.8361 H   0  0  0  0  0  0  0  0  0  0  0  0
    6.0568   -3.9594   27.2204 H   0  0  0  0  0  0  0  0  0  0  0  0
    7.7012   -3.3738   27.6444 H   0  0  0  0  0  0  0  0  0  0  0  0
    8.0395   -0.5622   18.4901 H   0  0  0  0  0  0  0  0  0  0  0  0
    6.9928   -1.2789   21.5482 H   0  0  0  0  0  0  0  0  0  0  0  0
    8.2704   -3.5841   22.9133 H   0  0  0  0  0  0  0  0  0  0  0  0
    9.9309   -3.0190   23.3009 H   0  0  0  0  0  0  0  0  0  0  0  0
   10.2283    0.7631   24.4497 H   0  0  0  0  0  0  0  0  0  0  0  0
  1  9  1  0
  1 11  1  0
  1 18  1  0
  2  5  2  0
  2 17  1  0
  3 12  1  0
  3 16  1  0
  3 26  1  6
  3 27  1  0
  4  7  2  0
  4 19  1  0
  4 28  1  0
  5 14  1  0
  5 29  1  0
  6 13  1  0
  6 15  1  0
  6 22  1  0
  6 30  1  1
  7 23  1  0
  7 31  1  0
  8 14  2  0
  8 24  1  0
  8 32  1  0
  9 22  1  0
  9 33  1  1
  9 34  1  0
 10 11  1  0
 10 19  2  0
 10 35  1  0
 11 23  2  0
 12 15  1  0
 12 36  1  1
 12 37  1  0
 13 16  1  0
 13 38  1  1
 13 39  1  0
 14 40  1  0
 15 41  1  6
 15 42  1  0
 16 43  1  1
 16 44  1  0
 17 24  2  0
 17 45  1  0
 18 20  1  0
 18 21  2  0
 19 25  1  0
 20 24  1  0
 20 46  1  0
 22 47  1  6
 22 48  1  0
 23 49  1  0
M  END
$$$$
