LIG(A-306)
     RDKit          3D

 54 57  0  0  1  0  0  0  0  0999 V2000
   10.6040    1.9226   24.2105 C   0  0  1  0  0  0  0  0  0  0  0  0
    9.3168    1.5127   24.4586 N   0  0  2  0  0  0  0  0  0  0  0  0
    8.4525    2.3329   25.2862 C   0  0  1  0  0  0  0  0  0  0  0  0
    7.7450    3.4973   24.6135 C   0  0  0  0  0  0  0  0  0  0  0  0
    7.0307    4.2539   25.2701 O   0  0  0  0  0  0  0  0  0  0  0  0
    7.8932    3.6224   23.2995 N   0  0  0  0  0  0  0  0  0  0  0  0
    7.0359    4.4772   22.4993 C   0  0  1  0  0  0  0  0  0  0  0  0
   11.4544    0.9890   23.4601 C   0  0  0  0  0  0  0  0  0  0  0  0
   12.7985    1.3043   23.2616 C   0  0  0  0  0  0  0  0  0  0  0  0
   13.6255    0.4368   22.5739 C   0  0  0  0  0  0  0  0  0  0  0  0
   13.1041   -0.7411   22.0864 C   0  0  0  0  0  0  0  0  0  0  0  0
   14.1647   -1.8751   21.2999 Cl  0  0  0  0  0  0  0  0  0  0  0  0
   11.7660   -1.0626   22.2352 C   0  0  0  0  0  0  0  0  0  0  0  0
   10.9167   -0.1814   22.9071 C   0  0  0  0  0  0  0  0  0  0  0  0
    9.4297   -0.4640   23.0004 C   0  0  1  0  0  0  0  0  0  0  0  0
    8.8818    0.1214   24.3008 C   0  0  2  0  0  0  0  0  0  0  0  0
    8.7383    0.2460   21.8328 C   0  0  0  0  0  0  0  0  0  0  0  0
    9.2159    1.2451   21.2981 O   0  0  0  0  0  0  0  0  0  0  0  0
    7.5543   -0.2997   21.4490 N   0  0  0  0  0  0  0  0  0  0  0  0
    6.7306    0.1107   20.3730 C   0  0  0  0  0  0  0  0  0  0  0  0
    5.5226    0.8638   20.5748 C   0  0  0  0  0  0  0  0  0  0  0  0
    4.9057    1.1346   21.8492 C   0  0  0  0  0  0  0  0  0  0  0  0
    5.3763    0.5720   23.1673 C   0  0  1  0  0  0  0  0  0  0  0  0
    3.7737    1.9226   21.8872 C   0  0  0  0  0  0  0  0  0  0  0  0
    3.1958    2.4514   20.7475 C   0  0  0  0  0  0  0  0  0  0  0  0
    3.7303    2.1941   19.5245 C   0  0  0  0  0  0  0  0  0  0  0  0
    4.8900    1.3926   19.4023 C   0  0  0  0  0  0  0  0  0  0  0  0
    5.4668    1.0917   18.1421 C   0  0  0  0  0  0  0  0  0  0  0  0
    6.5622    0.3704   17.9696 N   0  0  0  0  0  0  0  0  0  0  0  0
    7.1685   -0.0976   19.0660 C   0  0  0  0  0  0  0  0  0  0  0  0
   10.5520    2.8609   23.6390 H   0  0  0  0  0  0  0  0  0  0  0  0
   11.0881    2.1102   25.1803 H   0  0  0  0  0  0  0  0  0  0  0  0
    8.9412    1.8281   23.5871 H   0  0  0  0  0  0  0  0  0  0  0  0
    7.6786    1.6755   25.7090 H   0  0  0  0  0  0  0  0  0  0  0  0
    9.0677    2.7453   26.0995 H   0  0  0  0  0  0  0  0  0  0  0  0
    8.6215    3.1093   22.8454 H   0  0  0  0  0  0  0  0  0  0  0  0
    7.3439    4.4222   21.4447 H   0  0  0  0  0  0  0  0  0  0  0  0
    5.9926    4.1420   22.5943 H   0  0  0  0  0  0  0  0  0  0  0  0
    7.1212    5.5154   22.8524 H   0  0  0  0  0  0  0  0  0  0  0  0
   13.1952    2.2317   23.6475 H   0  0  0  0  0  0  0  0  0  0  0  0
   14.6667    0.6792   22.4206 H   0  0  0  0  0  0  0  0  0  0  0  0
   11.3815   -1.9888   21.8342 H   0  0  0  0  0  0  0  0  0  0  0  0
    9.2388   -1.5465   22.9569 H   0  0  0  0  0  0  0  0  0  0  0  0
    7.7825    0.0856   24.2796 H   0  0  0  0  0  0  0  0  0  0  0  0
    9.2516   -0.4724   25.1498 H   0  0  0  0  0  0  0  0  0  0  0  0
    7.2286   -1.0776   21.9863 H   0  0  0  0  0  0  0  0  0  0  0  0
    6.4118    0.8923   23.3546 H   0  0  0  0  0  0  0  0  0  0  0  0
    4.7271    0.9398   23.9756 H   0  0  0  0  0  0  0  0  0  0  0  0
    5.3329   -0.5267   23.1333 H   0  0  0  0  0  0  0  0  0  0  0  0
    3.3212    2.1349   22.8446 H   0  0  0  0  0  0  0  0  0  0  0  0
    2.3156    3.0718   20.8295 H   0  0  0  0  0  0  0  0  0  0  0  0
    3.2666    2.6044   18.6396 H   0  0  0  0  0  0  0  0  0  0  0  0
    4.9770    1.4788   17.2609 H   0  0  0  0  0  0  0  0  0  0  0  0
    8.0664   -0.6817   18.9282 H   0  0  0  0  0  0  0  0  0  0  0  0
  1  2  1  0
  1  8  1  0
  1 31  1  6
  1 32  1  0
  2  3  1  0
  2 16  1  0
  2 33  1  6
  3  4  1  0
  3 34  1  1
  3 35  1  0
  4  5  2  0
  4  6  1  0
  6  7  1  0
  6 36  1  0
  7 37  1  6
  7 38  1  0
  7 39  1  0
  8  9  2  0
  8 14  1  0
  9 10  1  0
  9 40  1  0
 10 11  2  0
 10 41  1  0
 11 12  1  0
 11 13  1  0
 13 14  2  0
 13 42  1  0
 14 15  1  0
 15 16  1  0
 15 17  1  0
 15 43  1  1
 16 44  1  6
 16 45  1  0
 17 18  2  0
 17 19  1  0
 19 20  1  0
 19 46  1  0
 20 21  2  0
 20 30  1  0
 21 22  1  0
 21 27  1  0
 22 23  1  0
 22 24  2  0
 23 47  1  1
 23 48  1  0
 23 49  1  0
 24 25  1  0
 24 50  1  0
 25 26  2  0
 25 51  1  0
 26 27  1  0
 26 52  1  0
 27 28  2  0
 28 29  1  0
 28 53  1  0
 29 30  2  0
 30 54  1  0
M  CHG  1   2   1
M  END
$$$$
