LIG(A-305)
     RDKit          3D

 52 55  0  0  0  0  0  0  0  0999 V2000
    8.9896    1.5586   21.1210 O   0  0  0  0  0  0  0  0  0  0  0  0
    8.8216    0.5056   21.7121 C   0  0  0  0  0  0  0  0  0  0  0  0
    8.1015   -0.6664   21.0381 C   0  0  1  0  0  0  0  0  0  0  0  0
    7.2315   -0.2103   19.9731 N   0  0  0  0  0  0  0  0  0  0  0  0
    6.0705    0.4988   20.0482 C   0  0  0  0  0  0  0  0  0  0  0  0
    5.2416    0.8738   21.0952 C   0  0  0  0  0  0  0  0  0  0  0  0
    4.1146    1.6219   20.7862 C   0  0  0  0  0  0  0  0  0  0  0  0
    3.8346    1.9889   19.4682 C   0  0  0  0  0  0  0  0  0  0  0  0
    4.6725    1.6078   18.4262 C   0  0  0  0  0  0  0  0  0  0  0  0
    5.7965    0.8428   18.7262 C   0  0  0  0  0  0  0  0  0  0  0  0
    6.7774    0.3087   17.9211 N   0  0  0  0  0  0  0  0  0  0  0  0
    7.6224   -0.3294   18.6791 N   0  0  0  0  0  0  0  0  0  0  0  0
    9.2466    0.3186   22.9961 N   0  0  0  0  0  0  0  0  0  0  0  0
    9.2255   -0.9394   23.6721 C   0  0  0  0  0  0  0  0  0  0  0  0
    8.2885   -1.1913   24.6711 C   0  0  0  0  0  0  0  0  0  0  0  0
    8.2625   -2.4183   25.3122 C   0  0  0  0  0  0  0  0  0  0  0  0
   10.1404   -1.9235   23.3311 C   0  0  0  0  0  0  0  0  0  0  0  0
   10.1134   -3.1515   23.9631 C   0  0  0  0  0  0  0  0  0  0  0  0
    9.1724   -3.4284   24.9641 C   0  0  0  0  0  0  0  0  0  0  0  0
    9.1413   -4.6614   25.5832 N   0  0  0  0  0  0  0  0  0  0  0  0
    9.7482   -5.8194   24.9532 C   0  0  1  0  0  0  0  0  0  0  0  0
    8.1563   -4.9723   26.6082 C   0  0  1  0  0  0  0  0  0  0  0  0
    9.7707    1.4756   23.7400 C   0  0  1  0  0  0  0  0  0  0  0  0
   11.2327    1.7484   23.4840 C   0  0  0  0  0  0  0  0  0  0  0  0
   11.6358    2.9044   22.8209 C   0  0  0  0  0  0  0  0  0  0  0  0
   12.9658    3.0623   22.4699 C   0  0  0  0  0  0  0  0  0  0  0  0
   13.4709    4.5372   21.6898 Cl  0  0  0  0  0  0  0  0  0  0  0  0
   13.9067    2.0952   22.7469 C   0  0  0  0  0  0  0  0  0  0  0  0
   13.5137    0.9633   23.4369 C   0  0  0  0  0  0  0  0  0  0  0  0
   12.1907    0.8004   23.8140 C   0  0  0  0  0  0  0  0  0  0  0  0
    8.8511   -1.3533   20.6184 H   0  0  0  0  0  0  0  0  0  0  0  0
    7.4987   -1.1964   21.7904 H   0  0  0  0  0  0  0  0  0  0  0  0
    5.4653    0.5937   22.1140 H   0  0  0  0  0  0  0  0  0  0  0  0
    3.4441    1.9249   21.5767 H   0  0  0  0  0  0  0  0  0  0  0  0
    2.9544    2.5773   19.2552 H   0  0  0  0  0  0  0  0  0  0  0  0
    4.4568    1.8983   17.4086 H   0  0  0  0  0  0  0  0  0  0  0  0
    7.5786   -0.4257   24.9472 H   0  0  0  0  0  0  0  0  0  0  0  0
    7.5340   -2.6000   26.0885 H   0  0  0  0  0  0  0  0  0  0  0  0
   10.8785   -1.7290   22.5670 H   0  0  0  0  0  0  0  0  0  0  0  0
   10.8286   -3.9101   23.6814 H   0  0  0  0  0  0  0  0  0  0  0  0
    9.6184   -6.6996   25.6001 H   0  0  0  0  0  0  0  0  0  0  0  0
    9.2652   -6.0037   23.9822 H   0  0  0  0  0  0  0  0  0  0  0  0
   10.8213   -5.6327   24.7993 H   0  0  0  0  0  0  0  0  0  0  0  0
    8.3101   -6.0014   26.9651 H   0  0  0  0  0  0  0  0  0  0  0  0
    8.2688   -4.2721   27.4491 H   0  0  0  0  0  0  0  0  0  0  0  0
    7.1452   -4.8781   26.1854 H   0  0  0  0  0  0  0  0  0  0  0  0
    9.1948    2.3661   23.4483 H   0  0  0  0  0  0  0  0  0  0  0  0
    9.6354    1.2875   24.8153 H   0  0  0  0  0  0  0  0  0  0  0  0
   10.9156    3.6729   22.5819 H   0  0  0  0  0  0  0  0  0  0  0  0
   14.9321    2.2187   22.4310 H   0  0  0  0  0  0  0  0  0  0  0  0
   14.2407    0.2034   23.6828 H   0  0  0  0  0  0  0  0  0  0  0  0
   11.9006   -0.0771   24.3728 H   0  0  0  0  0  0  0  0  0  0  0  0
  1  2  2  0
  2  3  1  0
  2 13  1  0
  3  4  1  0
  3 31  1  6
  3 32  1  0
  4  5  1  0
  4 12  1  0
  5  6  2  0
  5 10  1  0
  6  7  1  0
  6 33  1  0
  7  8  2  0
  7 34  1  0
  8  9  1  0
  8 35  1  0
  9 10  2  0
  9 36  1  0
 10 11  1  0
 11 12  2  0
 13 14  1  0
 13 23  1  0
 14 15  2  0
 14 17  1  0
 15 16  1  0
 15 37  1  0
 16 19  2  0
 16 38  1  0
 17 18  2  0
 17 39  1  0
 18 19  1  0
 18 40  1  0
 19 20  1  0
 20 21  1  0
 20 22  1  0
 21 41  1  1
 21 42  1  0
 21 43  1  0
 22 44  1  1
 22 45  1  0
 22 46  1  0
 23 24  1  0
 23 47  1  6
 23 48  1  0
 24 25  2  0
 24 30  1  0
 25 26  1  0
 25 49  1  0
 26 27  1  0
 26 28  2  0
 28 29  1  0
 28 50  1  0
 29 30  2  0
 29 51  1  0
 30 52  1  0
M  END
$$$$
