LIG(A-305)
     RDKit          3D

 40 43  0  0  1  0  0  0  0  0999 V2000
   13.9977   -1.7316   20.9029 Cl  0  0  0  0  0  0  0  0  0  0  0  0
   12.9718   -0.8666   22.0040 C   0  0  0  0  0  0  0  0  0  0  0  0
   13.5288    0.0574   22.8619 C   0  0  0  0  0  0  0  0  0  0  0  0
   12.7158    0.7144   23.7669 C   0  0  0  0  0  0  0  0  0  0  0  0
   11.6218   -1.1416   22.0080 C   0  0  0  0  0  0  0  0  0  0  0  0
   10.7868   -0.4726   22.8981 C   0  0  0  0  0  0  0  0  0  0  0  0
   11.3558    0.4434   23.7800 C   0  0  0  0  0  0  0  0  0  0  0  0
   10.6069    1.1204   24.7060 O   0  0  0  0  0  0  0  0  0  0  0  0
    9.5059    0.3514   25.2111 C   0  0  1  0  0  0  0  0  0  0  0  0
    8.5449   -0.0796   24.1271 C   0  0  1  0  0  0  0  0  0  0  0  0
    9.2828   -0.6447   22.8761 C   0  0  1  0  0  0  0  0  0  0  0  0
    8.7797    0.0683   21.6191 C   0  0  0  0  0  0  0  0  0  0  0  0
    9.3447    1.0573   21.1561 O   0  0  0  0  0  0  0  0  0  0  0  0
    7.6547   -0.4627   21.0932 N   0  0  0  0  0  0  0  0  0  0  0  0
    6.8907    0.0612   20.0242 C   0  0  0  0  0  0  0  0  0  0  0  0
    7.4116    0.0672   18.7332 C   0  0  0  0  0  0  0  0  0  0  0  0
    6.7886    0.6182   17.6882 N   0  0  0  0  0  0  0  0  0  0  0  0
    5.5886    1.1702   17.8983 C   0  0  0  0  0  0  0  0  0  0  0  0
    5.6317    0.6382   20.2273 C   0  0  0  0  0  0  0  0  0  0  0  0
    4.7637    0.7522   21.3223 N   0  0  0  0  0  0  0  0  0  0  0  0
    5.0138    0.3433   22.7033 C   0  0  1  0  0  0  0  0  0  0  0  0
    4.9716    1.1942   19.1453 C   0  0  0  0  0  0  0  0  0  0  0  0
    3.7306    1.6302   19.5903 N   0  0  0  0  0  0  0  0  0  0  0  0
    3.5867    1.3612   20.9203 C   0  0  0  0  0  0  0  0  0  0  0  0
    2.6157    1.5862   21.6274 O   0  0  0  0  0  0  0  0  0  0  0  0
   14.5880    0.2657   22.8276 H   0  0  0  0  0  0  0  0  0  0  0  0
   13.1358    1.4315   24.4568 H   0  0  0  0  0  0  0  0  0  0  0  0
   11.2140   -1.8719   21.3248 H   0  0  0  0  0  0  0  0  0  0  0  0
    9.9029   -0.5471   25.7061 H   0  0  0  0  0  0  0  0  0  0  0  0
    8.9579    0.9619   25.9439 H   0  0  0  0  0  0  0  0  0  0  0  0
    7.8830   -0.8602   24.5305 H   0  0  0  0  0  0  0  0  0  0  0  0
    7.9433    0.7890   23.8213 H   0  0  0  0  0  0  0  0  0  0  0  0
    9.0483   -1.7160   22.7910 H   0  0  0  0  0  0  0  0  0  0  0  0
    7.3280   -1.3148   21.5019 H   0  0  0  0  0  0  0  0  0  0  0  0
    8.3716   -0.3990   18.5677 H   0  0  0  0  0  0  0  0  0  0  0  0
    5.0743    1.6183   17.0609 H   0  0  0  0  0  0  0  0  0  0  0  0
    5.8839    0.8895   23.0962 H   0  0  0  0  0  0  0  0  0  0  0  0
    4.1304    0.5700   23.3184 H   0  0  0  0  0  0  0  0  0  0  0  0
    5.2149   -0.7377   22.7347 H   0  0  0  0  0  0  0  0  0  0  0  0
    3.0420    2.0766   19.0182 H   0  0  0  0  0  0  0  0  0  0  0  0
  1  2  1  0
  2  3  2  0
  2  5  1  0
  3  4  1  0
  3 26  1  0
  4  7  2  0
  4 27  1  0
  5  6  2  0
  5 28  1  0
  6  7  1  0
  6 11  1  0
  7  8  1  0
  8  9  1  0
  9 10  1  0
  9 29  1  1
  9 30  1  0
 10 11  1  0
 10 31  1  1
 10 32  1  0
 11 12  1  0
 11 33  1  6
 12 13  2  0
 12 14  1  0
 14 15  1  0
 14 34  1  0
 15 16  2  0
 15 19  1  0
 16 17  1  0
 16 35  1  0
 17 18  2  0
 18 22  1  0
 18 36  1  0
 19 20  1  0
 19 22  2  0
 20 21  1  0
 20 24  1  0
 21 37  1  1
 21 38  1  0
 21 39  1  0
 22 23  1  0
 23 24  1  0
 23 40  1  0
 24 25  2  0
M  END
$$$$
