LIG(A-305)
     RDKit          3D

 42 44  0  0  1  0  0  0  0  0999 V2000
    5.1766    1.0803   17.7333 Br  0  0  0  0  0  0  0  0  0  0  0  0
    5.7458   -0.0216   19.1623 C   0  0  0  0  0  0  0  0  0  0  0  0
    6.0589   -1.3336   18.9044 C   0  0  0  0  0  0  0  0  0  0  0  0
    6.4730   -2.1455   19.9514 C   0  0  0  0  0  0  0  0  0  0  0  0
    6.9411   -3.5685   19.9484 C   0  0  0  0  0  0  0  0  0  0  0  0
    5.8921   -4.4376   19.5695 O   0  0  0  0  0  0  0  0  0  0  0  0
    7.1962   -3.8204   21.4264 C   0  0  0  0  0  0  0  0  0  0  0  0
    7.4523   -4.8893   21.9485 O   0  0  0  0  0  0  0  0  0  0  0  0
    5.8238    0.5085   20.4313 C   0  0  0  0  0  0  0  0  0  0  0  0
    6.2149   -0.2994   21.4963 C   0  0  0  0  0  0  0  0  0  0  0  0
    6.1970    0.2746   22.8923 C   0  0  1  0  0  0  0  0  0  0  0  0
    6.5540   -1.6334   21.2274 C   0  0  0  0  0  0  0  0  0  0  0  0
    7.1121   -2.6133   22.0734 N   0  0  0  0  0  0  0  0  0  0  0  0
    7.5762   -2.4082   23.4413 C   0  0  1  0  0  0  0  0  0  0  0  0
    8.9421   -1.7681   23.5142 C   0  0  0  0  0  0  0  0  0  0  0  0
    9.3502   -1.1350   24.6822 C   0  0  0  0  0  0  0  0  0  0  0  0
   10.5681   -0.4830   24.7421 C   0  0  0  0  0  0  0  0  0  0  0  0
   11.0201    0.2241   25.8230 O   0  0  0  0  0  0  0  0  0  0  0  0
   10.2112    0.2251   27.0071 C   0  0  1  0  0  0  0  0  0  0  0  0
    9.7871   -1.7501   22.4112 C   0  0  0  0  0  0  0  0  0  0  0  0
   11.0190   -1.1251   22.4551 C   0  0  0  0  0  0  0  0  0  0  0  0
   11.4191   -0.4870   23.6230 C   0  0  0  0  0  0  0  0  0  0  0  0
   12.6280    0.1281   23.8069 O   0  0  0  0  0  0  0  0  0  0  0  0
   13.5700    0.0931   22.7359 C   0  0  1  0  0  0  0  0  0  0  0  0
    5.9840   -1.7279   17.9017 H   0  0  0  0  0  0  0  0  0  0  0  0
    5.9835   -5.2641   20.0290 H   0  0  0  0  0  0  0  0  0  0  0  0
    7.0160   -4.9436   22.7906 H   0  0  0  0  0  0  0  0  0  0  0  0
    5.5824    1.5476   20.5999 H   0  0  0  0  0  0  0  0  0  0  0  0
    5.8532    1.3189   22.8555 H   0  0  0  0  0  0  0  0  0  0  0  0
    5.5137   -0.3142   23.5220 H   0  0  0  0  0  0  0  0  0  0  0  0
    7.2110    0.2373   23.3170 H   0  0  0  0  0  0  0  0  0  0  0  0
    6.8569   -1.7583   23.9612 H   0  0  0  0  0  0  0  0  0  0  0  0
    7.6197   -3.3845   23.9463 H   0  0  0  0  0  0  0  0  0  0  0  0
    8.7097   -1.1525   25.5516 H   0  0  0  0  0  0  0  0  0  0  0  0
   10.6995    0.8306   27.7848 H   0  0  0  0  0  0  0  0  0  0  0  0
    9.2240    0.6519   26.7762 H   0  0  0  0  0  0  0  0  0  0  0  0
   10.0892   -0.8066   27.3685 H   0  0  0  0  0  0  0  0  0  0  0  0
    9.4740   -2.2357   21.4987 H   0  0  0  0  0  0  0  0  0  0  0  0
   11.6650   -1.1325   21.5896 H   0  0  0  0  0  0  0  0  0  0  0  0
   14.4850    0.6260   23.0340 H   0  0  0  0  0  0  0  0  0  0  0  0
   13.8157   -0.9523   22.4979 H   0  0  0  0  0  0  0  0  0  0  0  0
   13.1354    0.5786   21.8496 H   0  0  0  0  0  0  0  0  0  0  0  0
  1  2  1  0
  2  3  2  0
  2  9  1  0
  3  4  1  0
  3 25  1  0
  4  5  1  0
  4 12  2  0
  5  6  1  0
  5  7  2  0
  6 26  1  0
  7  8  1  0
  7 13  1  0
  8 27  1  0
  9 10  2  0
  9 28  1  0
 10 11  1  0
 10 12  1  0
 11 29  1  6
 11 30  1  0
 11 31  1  0
 12 13  1  0
 13 14  1  0
 14 15  1  0
 14 32  1  1
 14 33  1  0
 15 16  2  0
 15 20  1  0
 16 17  1  0
 16 34  1  0
 17 18  1  0
 17 22  2  0
 18 19  1  0
 19 35  1  1
 19 36  1  0
 19 37  1  0
 20 21  2  0
 20 38  1  0
 21 22  1  0
 21 39  1  0
 22 23  1  0
 23 24  1  0
 24 40  1  1
 24 41  1  0
 24 42  1  0
M  END
$$$$
