LIG(A-306)
     RDKit          3D

 44 47  0  0  1  0  0  0  0  0999 V2000
  -14.6212   -2.3740  -21.1252 Cl  0  0  0  0  0  0  0  0  0  0  0  0
  -13.4896   -1.5810  -22.1888 C   0  0  0  0  0  0  0  0  0  0  0  0
  -13.9433   -0.5721  -23.0228 C   0  0  0  0  0  0  0  0  0  0  0  0
  -13.0396    0.1195  -23.8126 C   0  0  0  0  0  0  0  0  0  0  0  0
  -11.7013   -0.2259  -23.7424 C   0  0  0  0  0  0  0  0  0  0  0  0
  -10.6670    0.2932  -24.4869 O   0  0  0  0  0  0  0  0  0  0  0  0
   -9.4292   -0.3909  -24.1527 C   0  0  1  0  0  0  0  0  0  0  0  0
  -12.1483   -1.9194  -22.1146 C   0  0  0  0  0  0  0  0  0  0  0  0
  -11.2376   -1.2019  -22.8843 C   0  0  0  0  0  0  0  0  0  0  0  0
   -9.7255   -1.1656  -22.8710 C   0  0  2  0  0  0  0  0  0  0  0  0
   -9.0296   -0.5684  -21.6488 C   0  0  0  0  0  0  0  0  0  0  0  0
   -9.4265    0.4578  -21.1178 O   0  0  0  0  0  0  0  0  0  0  0  0
   -7.9325   -1.2699  -21.0895 N   0  0  0  0  0  0  0  0  0  0  0  0
   -7.4260   -2.4933  -21.6003 C   0  0  0  0  0  0  0  0  0  0  0  0
   -7.8534   -2.9747  -22.6535 O   0  0  0  0  0  0  0  0  0  0  0  0
   -6.3567   -3.1895  -20.8240 C   0  0  1  0  0  0  0  0  0  0  0  0
   -6.9635   -4.3838  -20.0434 C   0  0  1  0  0  0  0  0  0  0  0  0
   -7.2356   -0.6223  -19.9901 C   0  0  0  0  0  0  0  0  0  0  0  0
   -7.6593   -0.7578  -18.6691 C   0  0  0  0  0  0  0  0  0  0  0  0
   -7.1445   -0.0795  -17.6334 N   0  0  0  0  0  0  0  0  0  0  0  0
   -6.1708    0.7831  -17.8886 C   0  0  0  0  0  0  0  0  0  0  0  0
   -5.6517    1.0463  -19.1823 C   0  0  0  0  0  0  0  0  0  0  0  0
   -6.2038    0.3233  -20.2772 C   0  0  0  0  0  0  0  0  0  0  0  0
   -4.6378    2.0067  -19.4313 C   0  0  0  0  0  0  0  0  0  0  0  0
   -4.1958    2.2411  -20.7030 C   0  0  0  0  0  0  0  0  0  0  0  0
   -4.7317    1.5410  -21.7758 C   0  0  0  0  0  0  0  0  0  0  0  0
   -5.7117    0.6076  -21.5808 C   0  0  0  0  0  0  0  0  0  0  0  0
  -14.9944   -0.3265  -23.0570 H   0  0  0  0  0  0  0  0  0  0  0  0
  -13.3719    0.9105  -24.4685 H   0  0  0  0  0  0  0  0  0  0  0  0
   -9.1403   -1.0796  -24.9603 H   0  0  0  0  0  0  0  0  0  0  0  0
   -8.6212    0.3364  -23.9845 H   0  0  0  0  0  0  0  0  0  0  0  0
  -11.8166   -2.7227  -21.4734 H   0  0  0  0  0  0  0  0  0  0  0  0
   -9.3567   -2.1935  -23.0028 H   0  0  0  0  0  0  0  0  0  0  0  0
   -5.5861   -3.5599  -21.5160 H   0  0  0  0  0  0  0  0  0  0  0  0
   -5.9026   -2.4827  -20.1139 H   0  0  0  0  0  0  0  0  0  0  0  0
   -6.1707   -4.8914  -19.4744 H   0  0  0  0  0  0  0  0  0  0  0  0
   -7.7337   -4.0150  -19.3498 H   0  0  0  0  0  0  0  0  0  0  0  0
   -7.4172   -5.0923  -20.7519 H   0  0  0  0  0  0  0  0  0  0  0  0
   -8.4569   -1.4570  -18.4659 H   0  0  0  0  0  0  0  0  0  0  0  0
   -5.7439    1.3217  -17.0555 H   0  0  0  0  0  0  0  0  0  0  0  0
   -4.2107    2.5586  -18.6070 H   0  0  0  0  0  0  0  0  0  0  0  0
   -3.4237    2.9763  -20.8751 H   0  0  0  0  0  0  0  0  0  0  0  0
   -4.3707    1.7358  -22.7749 H   0  0  0  0  0  0  0  0  0  0  0  0
   -6.1183    0.0782  -22.4298 H   0  0  0  0  0  0  0  0  0  0  0  0
  1  2  1  0
  2  3  2  0
  2  8  1  0
  3  4  1  0
  3 28  1  0
  4  5  2  0
  4 29  1  0
  5  6  1  0
  5  9  1  0
  6  7  1  0
  7 10  1  0
  7 30  1  6
  7 31  1  0
  8  9  2  0
  8 32  1  0
  9 10  1  0
 10 11  1  0
 10 33  1  6
 11 12  2  0
 11 13  1  0
 13 14  1  0
 13 18  1  0
 14 15  2  0
 14 16  1  0
 16 17  1  0
 16 34  1  6
 16 35  1  0
 17 36  1  1
 17 37  1  0
 17 38  1  0
 18 19  2  0
 18 23  1  0
 19 20  1  0
 19 39  1  0
 20 21  2  0
 21 22  1  0
 21 40  1  0
 22 23  2  0
 22 24  1  0
 23 27  1  0
 24 25  2  0
 24 41  1  0
 25 26  1  0
 25 42  1  0
 26 27  2  0
 26 43  1  0
 27 44  1  0
M  END
$$$$
