LIG(A-306)
     RDKit          3D

 58 61  0  0  1  0  0  0  0  0999 V2000
   -9.9088    0.6656  -20.8936 O   0  0  0  0  0  0  0  0  0  0  0  0
   -9.3217   -0.2379  -21.4704 C   0  0  0  0  0  0  0  0  0  0  0  0
   -8.1082   -0.6821  -21.0704 N   0  0  0  0  0  0  0  0  0  0  0  0
   -7.3507   -0.1925  -19.9887 C   0  0  0  0  0  0  0  0  0  0  0  0
   -6.2420    0.6697  -20.2602 C   0  0  0  0  0  0  0  0  0  0  0  0
   -5.8347    1.0472  -21.5675 C   0  0  0  0  0  0  0  0  0  0  0  0
   -4.7859    1.9043  -21.7570 C   0  0  0  0  0  0  0  0  0  0  0  0
   -4.0953    2.4300  -20.6711 C   0  0  0  0  0  0  0  0  0  0  0  0
   -4.4465    2.0926  -19.3947 C   0  0  0  0  0  0  0  0  0  0  0  0
   -5.5243    1.2033  -19.1544 C   0  0  0  0  0  0  0  0  0  0  0  0
   -5.9535    0.8390  -17.8550 C   0  0  0  0  0  0  0  0  0  0  0  0
   -6.9820    0.0426  -17.6054 N   0  0  0  0  0  0  0  0  0  0  0  0
   -7.6516   -0.4533  -18.6532 C   0  0  0  0  0  0  0  0  0  0  0  0
   -9.9118   -0.8752  -22.7508 C   0  0  1  0  0  0  0  0  0  0  0  0
  -11.4314   -0.7186  -22.7193 C   0  0  0  0  0  0  0  0  0  0  0  0
  -12.2324   -1.5354  -21.9240 C   0  0  0  0  0  0  0  0  0  0  0  0
  -13.6040   -1.3571  -21.9367 C   0  0  0  0  0  0  0  0  0  0  0  0
  -14.5795   -2.2237  -20.7783 Cl  0  0  0  0  0  0  0  0  0  0  0  0
  -14.2108   -0.4289  -22.7548 C   0  0  0  0  0  0  0  0  0  0  0  0
  -13.4279    0.3799  -23.5560 C   0  0  0  0  0  0  0  0  0  0  0  0
  -12.0522    0.2385  -23.5223 C   0  0  0  0  0  0  0  0  0  0  0  0
  -11.3412    1.0945  -24.3223 O   0  0  0  0  0  0  0  0  0  0  0  0
  -10.1954    0.4708  -24.9069 C   0  0  1  0  0  0  0  0  0  0  0  0
   -9.2213   -0.0451  -23.8629 C   0  0  2  0  0  0  0  0  0  0  0  0
   -9.5205   -2.3699  -22.8053 C   0  0  1  0  0  0  0  0  0  0  0  0
   -9.8827   -3.0529  -24.0351 N   0  0  0  0  0  0  0  0  0  0  0  0
   -9.4389   -4.2791  -24.3048 C   0  0  0  0  0  0  0  0  0  0  0  0
   -8.6384   -4.8704  -23.5818 O   0  0  0  0  0  0  0  0  0  0  0  0
  -10.0531   -4.9525  -25.5223 C   0  0  1  0  0  0  0  0  0  0  0  0
   -9.2784   -4.8152  -26.7609 N   0  0  2  0  0  0  0  0  0  0  0  0
   -9.9972   -5.4067  -27.8849 C   0  0  1  0  0  0  0  0  0  0  0  0
   -7.9667   -5.4438  -26.6266 C   0  0  1  0  0  0  0  0  0  0  0  0
   -7.7089   -1.4336  -21.5955 H   0  0  0  0  0  0  0  0  0  0  0  0
   -6.3607    0.6518  -22.4240 H   0  0  0  0  0  0  0  0  0  0  0  0
   -4.4914    2.1754  -22.7600 H   0  0  0  0  0  0  0  0  0  0  0  0
   -3.2740    3.1111  -20.8379 H   0  0  0  0  0  0  0  0  0  0  0  0
   -3.8983    2.5068  -18.5615 H   0  0  0  0  0  0  0  0  0  0  0  0
   -5.4065    1.2363  -17.0128 H   0  0  0  0  0  0  0  0  0  0  0  0
   -8.4881   -1.1047  -18.4480 H   0  0  0  0  0  0  0  0  0  0  0  0
  -11.7871   -2.2997  -21.3042 H   0  0  0  0  0  0  0  0  0  0  0  0
  -15.2866   -0.3347  -22.7695 H   0  0  0  0  0  0  0  0  0  0  0  0
  -13.8852    1.1148  -24.2020 H   0  0  0  0  0  0  0  0  0  0  0  0
  -10.5306   -0.3747  -25.5255 H   0  0  0  0  0  0  0  0  0  0  0  0
   -9.6777    1.2060  -25.5404 H   0  0  0  0  0  0  0  0  0  0  0  0
   -8.4750   -0.6802  -24.3626 H   0  0  0  0  0  0  0  0  0  0  0  0
   -8.7179    0.8151  -23.3973 H   0  0  0  0  0  0  0  0  0  0  0  0
   -8.4297   -2.4421  -22.6829 H   0  0  0  0  0  0  0  0  0  0  0  0
  -10.0180   -2.8840  -21.9698 H   0  0  0  0  0  0  0  0  0  0  0  0
  -10.4781   -2.5924  -24.6934 H   0  0  0  0  0  0  0  0  0  0  0  0
  -10.1588   -6.0251  -25.3025 H   0  0  0  0  0  0  0  0  0  0  0  0
  -11.0474   -4.5131  -25.6907 H   0  0  0  0  0  0  0  0  0  0  0  0
   -9.1465   -3.8412  -26.9449 H   0  0  0  0  0  0  0  0  0  0  0  0
   -9.4010   -5.2938  -28.8024 H   0  0  0  0  0  0  0  0  0  0  0  0
  -10.1690   -6.4754  -27.6887 H   0  0  0  0  0  0  0  0  0  0  0  0
  -10.9639   -4.8971  -28.0109 H   0  0  0  0  0  0  0  0  0  0  0  0
   -7.4061   -5.3278  -27.5660 H   0  0  0  0  0  0  0  0  0  0  0  0
   -7.4121   -4.9634  -25.8071 H   0  0  0  0  0  0  0  0  0  0  0  0
   -8.0939   -6.5137  -26.4055 H   0  0  0  0  0  0  0  0  0  0  0  0
  1  2  2  0
  2  3  1  0
 14  2  1  1
  3  4  1  0
  3 33  1  0
  4  5  2  0
  4 13  1  0
  5  6  1  0
  5 10  1  0
  6  7  2  0
  6 34  1  0
  7  8  1  0
  7 35  1  0
  8  9  2  0
  8 36  1  0
  9 10  1  0
  9 37  1  0
 10 11  2  0
 11 12  1  0
 11 38  1  0
 12 13  2  0
 13 39  1  0
 14 15  1  0
 14 24  1  0
 14 25  1  0
 15 16  2  0
 15 21  1  0
 16 17  1  0
 16 40  1  0
 17 18  1  0
 17 19  2  0
 19 20  1  0
 19 41  1  0
 20 21  2  0
 20 42  1  0
 21 22  1  0
 22 23  1  0
 23 24  1  0
 23 43  1  6
 23 44  1  0
 24 45  1  6
 24 46  1  0
 25 26  1  0
 25 47  1  1
 25 48  1  0
 26 27  1  0
 26 49  1  0
 27 28  2  0
 27 29  1  0
 29 30  1  0
 29 50  1  1
 29 51  1  0
 30 31  1  0
 30 32  1  0
 30 52  1  6
 31 53  1  6
 31 54  1  0
 31 55  1  0
 32 56  1  6
 32 57  1  0
 32 58  1  0
M  CHG  1  30   1
M  END
$$$$
