LIG(A-306)
     RDKit          3D

 59 63  0  0  1  0  0  0  0  0999 V2000
    6.1031    7.5578   23.2144 O   0  0  0  0  0  0  0  0  0  0  0  0
    7.2622    6.7250   23.0295 S   0  0  2  0  0  0  0  0  0  0  0  0
    8.4971    7.3432   22.6234 O   0  0  0  0  0  0  0  0  0  0  0  0
    6.8685    5.2289   22.1326 C   0  0  1  0  0  0  0  0  0  0  0  0
    7.4945    5.4611   24.2705 C   0  0  1  0  0  0  0  0  0  0  0  0
    6.7337    4.4059   23.4376 C   0  0  1  0  0  0  0  0  0  0  0  0
    5.2667    4.2706   23.8526 C   0  0  1  0  0  0  0  0  0  0  0  0
    7.4230    3.0420   23.3107 C   0  0  1  0  0  0  0  0  0  0  0  0
    7.6091    2.0671   24.7957 S   0  0  1  0  0  0  0  0  0  0  0  0
    8.1120    2.9093   25.8337 O   0  0  0  0  0  0  0  0  0  0  0  0
    6.4013    1.3359   25.0198 O   0  0  0  0  0  0  0  0  0  0  0  0
    8.7654    0.9813   24.4598 N   0  0  0  0  0  0  0  0  0  0  0  0
   10.1493    1.2806   24.8448 C   0  0  1  0  0  0  0  0  0  0  0  0
   11.1104    0.5548   23.9318 C   0  0  0  0  0  0  0  0  0  0  0  0
   12.4514    0.9360   23.9318 C   0  0  0  0  0  0  0  0  0  0  0  0
   13.3735    0.3082   23.1188 C   0  0  0  0  0  0  0  0  0  0  0  0
   12.9617   -0.7390   22.3269 C   0  0  0  0  0  0  0  0  0  0  0  0
   14.1288   -1.5558   21.3219 Cl  0  0  0  0  0  0  0  0  0  0  0  0
   11.6418   -1.1512   22.3019 C   0  0  0  0  0  0  0  0  0  0  0  0
   10.6946   -0.4874   23.0849 C   0  0  0  0  0  0  0  0  0  0  0  0
    9.2207   -0.8396   22.9699 C   0  0  1  0  0  0  0  0  0  0  0  0
    8.4746   -0.4477   24.2459 C   0  0  1  0  0  0  0  0  0  0  0  0
    8.6375   -0.0658   21.7828 C   0  0  0  0  0  0  0  0  0  0  0  0
    9.1773    0.9493   21.3318 O   0  0  0  0  0  0  0  0  0  0  0  0
    7.4846   -0.5831   21.2779 N   0  0  0  0  0  0  0  0  0  0  0  0
    6.7406   -0.1193   20.1609 C   0  0  0  0  0  0  0  0  0  0  0  0
    5.5514    0.6525   20.3828 C   0  0  0  0  0  0  0  0  0  0  0  0
    4.9784    0.8715   21.6638 C   0  0  0  0  0  0  0  0  0  0  0  0
    3.8532    1.6353   21.8108 C   0  0  0  0  0  0  0  0  0  0  0  0
    3.2521    2.2301   20.7087 C   0  0  0  0  0  0  0  0  0  0  0  0
    3.7631    2.0481   19.4547 C   0  0  0  0  0  0  0  0  0  0  0  0
    4.9113    1.2413   19.2538 C   0  0  0  0  0  0  0  0  0  0  0  0
    5.4603    0.9823   17.9738 C   0  0  0  0  0  0  0  0  0  0  0  0
    6.5375    0.2395   17.7638 N   0  0  0  0  0  0  0  0  0  0  0  0
    7.1516   -0.2823   18.8359 C   0  0  0  0  0  0  0  0  0  0  0  0
    5.9342    5.2948   21.5558 H   0  0  0  0  0  0  0  0  0  0  0  0
    7.6808    4.8829   21.4764 H   0  0  0  0  0  0  0  0  0  0  0  0
    8.5501    5.2053   24.4443 H   0  0  0  0  0  0  0  0  0  0  0  0
    7.0108    5.6945   25.2305 H   0  0  0  0  0  0  0  0  0  0  0  0
    5.2002    3.6831   24.7802 H   0  0  0  0  0  0  0  0  0  0  0  0
    4.8396    5.2704   24.0206 H   0  0  0  0  0  0  0  0  0  0  0  0
    4.7056    3.7614   23.0551 H   0  0  0  0  0  0  0  0  0  0  0  0
    6.8393    2.4438   22.5955 H   0  0  0  0  0  0  0  0  0  0  0  0
    8.4299    3.2189   22.9049 H   0  0  0  0  0  0  0  0  0  0  0  0
   10.3222    2.3643   24.7677 H   0  0  0  0  0  0  0  0  0  0  0  0
   10.3169    0.9554   25.8822 H   0  0  0  0  0  0  0  0  0  0  0  0
   12.7746    1.7373   24.5797 H   0  0  0  0  0  0  0  0  0  0  0  0
   14.4030    0.6341   23.1046 H   0  0  0  0  0  0  0  0  0  0  0  0
   11.3448   -1.9826   21.6798 H   0  0  0  0  0  0  0  0  0  0  0  0
    9.1100   -1.9200   22.7950 H   0  0  0  0  0  0  0  0  0  0  0  0
    8.8344   -1.0433   25.0979 H   0  0  0  0  0  0  0  0  0  0  0  0
    7.3931   -0.6036   24.1201 H   0  0  0  0  0  0  0  0  0  0  0  0
    7.1178   -1.3850   21.7494 H   0  0  0  0  0  0  0  0  0  0  0  0
    5.4379    0.4282   22.5349 H   0  0  0  0  0  0  0  0  0  0  0  0
    3.4280    1.7772   22.7934 H   0  0  0  0  0  0  0  0  0  0  0  0
    2.3726    2.8420   20.8444 H   0  0  0  0  0  0  0  0  0  0  0  0
    3.2881    2.5232   18.6091 H   0  0  0  0  0  0  0  0  0  0  0  0
    4.9703    1.4175   17.1154 H   0  0  0  0  0  0  0  0  0  0  0  0
    8.0359   -0.8769   18.6604 H   0  0  0  0  0  0  0  0  0  0  0  0
  1  2  2  0
  2  3  2  0
  2  4  1  6
  2  5  1  0
  4  6  1  0
  4 36  1  6
  4 37  1  0
  5  6  1  0
  5 38  1  1
  5 39  1  0
  6  7  1  0
  6  8  1  6
  7 40  1  1
  7 41  1  0
  7 42  1  0
  8  9  1  0
  8 43  1  6
  8 44  1  0
  9 10  2  0
  9 11  2  0
  9 12  1  6
 12 13  1  0
 12 22  1  0
 13 14  1  0
 13 45  1  1
 13 46  1  0
 14 15  2  0
 14 20  1  0
 15 16  1  0
 15 47  1  0
 16 17  2  0
 16 48  1  0
 17 18  1  0
 17 19  1  0
 19 20  2  0
 19 49  1  0
 20 21  1  0
 21 22  1  0
 21 23  1  0
 21 50  1  6
 22 51  1  1
 22 52  1  0
 23 24  2  0
 23 25  1  0
 25 26  1  0
 25 53  1  0
 26 27  2  0
 26 35  1  0
 27 28  1  0
 27 32  1  0
 28 29  2  0
 28 54  1  0
 29 30  1  0
 29 55  1  0
 30 31  2  0
 30 56  1  0
 31 32  1  0
 31 57  1  0
 32 33  2  0
 33 34  1  0
 33 58  1  0
 34 35  2  0
 35 59  1  0
M  END
$$$$
