LIG(A-305)
     RDKit          3D

 38 39  0  0  0  0  0  0  0  0999 V2000
   11.3719    5.5518   24.0818 O   0  0  0  0  0  0  0  0  0  0  0  0
   10.7470    4.2717   24.0949 S   0  0  1  0  0  0  0  0  0  0  0  0
    9.9541    3.8977   25.2190 O   0  0  0  0  0  0  0  0  0  0  0  0
    9.7859    4.2216   22.7970 N   0  0  0  0  0  0  0  0  0  0  0  0
   11.8480    3.0728   23.8899 N   0  0  0  0  0  0  0  0  0  0  0  0
   11.6741    1.6778   23.5579 C   0  0  0  0  0  0  0  0  0  0  0  0
   12.7941    0.9278   23.1979 C   0  0  0  0  0  0  0  0  0  0  0  0
   12.6091   -0.3582   22.7210 C   0  0  0  0  0  0  0  0  0  0  0  0
   13.9922   -1.2682   22.1769 Cl  0  0  0  0  0  0  0  0  0  0  0  0
   11.3582   -0.9253   22.6131 C   0  0  0  0  0  0  0  0  0  0  0  0
   10.4071    1.0987   23.4820 C   0  0  0  0  0  0  0  0  0  0  0  0
   10.2391   -0.1923   22.9851 C   0  0  0  0  0  0  0  0  0  0  0  0
    8.8552   -0.7374   22.7062 C   0  0  1  0  0  0  0  0  0  0  0  0
    8.2820   -0.0925   21.4592 C   0  0  0  0  0  0  0  0  0  0  0  0
    8.8490    0.8405   20.9112 O   0  0  0  0  0  0  0  0  0  0  0  0
    7.1030   -0.5906   21.0273 N   0  0  0  0  0  0  0  0  0  0  0  0
    6.4389   -0.0287   19.9063 C   0  0  0  0  0  0  0  0  0  0  0  0
    5.2979    0.7743   20.0944 C   0  0  0  0  0  0  0  0  0  0  0  0
    4.6780    0.9783   21.4544 C   0  0  1  0  0  0  0  0  0  0  0  0
    6.9429   -0.1707   18.6113 C   0  0  0  0  0  0  0  0  0  0  0  0
    6.4268    0.4442   17.5433 N   0  0  0  0  0  0  0  0  0  0  0  0
    5.3437    1.2052   17.7364 C   0  0  0  0  0  0  0  0  0  0  0  0
    4.7548    1.3902   18.9714 C   0  0  0  0  0  0  0  0  0  0  0  0
   10.0684    3.4697   22.2012 H   0  0  0  0  0  0  0  0  0  0  0  0
    9.8539    5.0854   22.2977 H   0  0  0  0  0  0  0  0  0  0  0  0
   12.7828    3.4034   23.7598 H   0  0  0  0  0  0  0  0  0  0  0  0
   13.7869    1.3431   23.2896 H   0  0  0  0  0  0  0  0  0  0  0  0
   11.2487   -1.9334   22.2415 H   0  0  0  0  0  0  0  0  0  0  0  0
    9.5448    1.6585   23.8129 H   0  0  0  0  0  0  0  0  0  0  0  0
    8.9159   -1.8256   22.5578 H   0  0  0  0  0  0  0  0  0  0  0  0
    8.1994   -0.5202   23.5622 H   0  0  0  0  0  0  0  0  0  0  0  0
    6.6920   -1.3671   21.5049 H   0  0  0  0  0  0  0  0  0  0  0  0
    5.4151    1.4390   22.1286 H   0  0  0  0  0  0  0  0  0  0  0  0
    3.8024    1.6379   21.3629 H   0  0  0  0  0  0  0  0  0  0  0  0
    4.3639    0.0067   21.8636 H   0  0  0  0  0  0  0  0  0  0  0  0
    7.7980   -0.8140   18.4651 H   0  0  0  0  0  0  0  0  0  0  0  0
    4.9073    1.7006   16.8817 H   0  0  0  0  0  0  0  0  0  0  0  0
    3.8759    2.0107   19.0653 H   0  0  0  0  0  0  0  0  0  0  0  0
  1  2  2  0
  2  3  2  0
  2  4  1  6
  2  5  1  0
  4 24  1  0
  4 25  1  0
  5  6  1  0
  5 26  1  0
  6  7  2  0
  6 11  1  0
  7  8  1  0
  7 27  1  0
  8  9  1  0
  8 10  2  0
 10 12  1  0
 10 28  1  0
 11 12  2  0
 11 29  1  0
 12 13  1  0
 13 14  1  0
 13 30  1  6
 13 31  1  0
 14 15  2  0
 14 16  1  0
 16 17  1  0
 16 32  1  0
 17 18  2  0
 17 20  1  0
 18 19  1  0
 18 23  1  0
 19 33  1  1
 19 34  1  0
 19 35  1  0
 20 21  2  0
 20 36  1  0
 21 22  1  0
 22 23  2  0
 22 37  1  0
 23 38  1  0
M  END
$$$$
