LIG(A-305)
     RDKit          3D

 32 33  0  0  0  0  0  0  0  0999 V2000
    6.9461   -2.6416   21.0054 N   0  0  0  0  0  0  0  0  0  0  0  0
    7.3599   -2.5027   18.5654 C   0  0  1  0  0  0  0  0  0  0  0  0
    5.8370   -4.0006   19.6075 O   0  0  0  0  0  0  0  0  0  0  0  0
    6.6460   -3.0947   19.7674 C   0  0  0  0  0  0  0  0  0  0  0  0
    6.4782   -3.3066   22.2184 C   0  0  1  0  0  0  0  0  0  0  0  0
    7.8202   -1.5177   21.3383 C   0  0  1  0  0  0  0  0  0  0  0  0
    8.9982   -2.0087   22.1512 C   0  0  1  0  0  0  0  0  0  0  0  0
    9.7223   -3.1607   24.1572 C   0  0  1  0  0  0  0  0  0  0  0  0
    9.3944   -4.2436   25.1413 C   0  0  0  0  0  0  0  0  0  0  0  0
    9.7033   -5.5997   25.0303 C   0  0  0  0  0  0  0  0  0  0  0  0
    9.3814   -6.3386   26.1923 C   0  0  0  0  0  0  0  0  0  0  0  0
    8.5955   -5.5716   27.0713 C   0  0  0  0  0  0  0  0  0  0  0  0
    7.6652   -3.7966   23.0134 C   0  0  1  0  0  0  0  0  0  0  0  0
    8.5593   -2.6907   23.3753 N   0  0  2  0  0  0  0  0  0  0  0  0
    8.5265   -3.9246   26.6083 S   0  0  0  0  0  0  0  0  0  0  0  0
    7.6746   -6.1595   28.5914 Br  0  0  0  0  0  0  0  0  0  0  0  0
    7.0225   -3.0117   17.6505 H   0  0  0  0  0  0  0  0  0  0  0  0
    7.1295   -1.4295   18.4941 H   0  0  0  0  0  0  0  0  0  0  0  0
    8.4455   -2.6377   18.6807 H   0  0  0  0  0  0  0  0  0  0  0  0
    5.8982   -2.5961   22.8257 H   0  0  0  0  0  0  0  0  0  0  0  0
    5.8413   -4.1611   21.9459 H   0  0  0  0  0  0  0  0  0  0  0  0
    8.1850   -1.0515   20.4112 H   0  0  0  0  0  0  0  0  0  0  0  0
    7.2557   -0.7768   21.9236 H   0  0  0  0  0  0  0  0  0  0  0  0
    9.5855   -2.7110   21.5415 H   0  0  0  0  0  0  0  0  0  0  0  0
    9.6260   -1.1485   22.4267 H   0  0  0  0  0  0  0  0  0  0  0  0
   10.1373   -2.3047   24.7096 H   0  0  0  0  0  0  0  0  0  0  0  0
   10.4779   -3.5461   23.4568 H   0  0  0  0  0  0  0  0  0  0  0  0
   10.1431   -6.0398   24.1475 H   0  0  0  0  0  0  0  0  0  0  0  0
    9.6964   -7.3545   26.3795 H   0  0  0  0  0  0  0  0  0  0  0  0
    7.3051   -4.2815   23.9327 H   0  0  0  0  0  0  0  0  0  0  0  0
    8.2245   -4.5261   22.4090 H   0  0  0  0  0  0  0  0  0  0  0  0
    8.0468   -2.0389   23.9345 H   0  0  0  0  0  0  0  0  0  0  0  0
  1  4  1  0
  1  5  1  0
  1  6  1  0
  2  4  1  0
  2 17  1  6
  2 18  1  0
  2 19  1  0
  3  4  2  0
  5 13  1  0
  5 20  1  1
  5 21  1  0
  6  7  1  0
  6 22  1  6
  6 23  1  0
  7 14  1  0
  7 24  1  6
  7 25  1  0
  8  9  1  0
  8 14  1  0
  8 26  1  1
  8 27  1  0
  9 10  2  0
  9 15  1  0
 10 11  1  0
 10 28  1  0
 11 12  2  0
 11 29  1  0
 12 15  1  0
 12 16  1  0
 13 14  1  0
 13 30  1  1
 13 31  1  0
 14 32  1  1
M  CHG  1  14   1
M  END
$$$$
