LIG(A-306)
     RDKit          3D

 54 57  0  0  1  0  0  0  0  0999 V2000
   14.0866   -1.5237   21.3598 Cl  0  0  0  0  0  0  0  0  0  0  0  0
   12.9273   -0.7357   22.3900 C   0  0  0  0  0  0  0  0  0  0  0  0
   11.5997   -1.1045   22.3081 C   0  0  0  0  0  0  0  0  0  0  0  0
   13.3482    0.2575   23.2463 C   0  0  0  0  0  0  0  0  0  0  0  0
   12.4168    0.8909   24.0490 C   0  0  0  0  0  0  0  0  0  0  0  0
   11.0626    0.5605   23.9776 C   0  0  0  0  0  0  0  0  0  0  0  0
   10.0697    1.2685   24.8750 C   0  0  1  0  0  0  0  0  0  0  0  0
    8.6833    1.1048   24.4136 N   0  0  2  0  0  0  0  0  0  0  0  0
    7.6804    1.7820   25.2628 C   0  0  1  0  0  0  0  0  0  0  0  0
    7.9269    2.0293   26.7454 C   0  0  1  0  0  0  0  0  0  0  0  0
    6.9954    2.9769   24.5847 C   0  0  0  0  0  0  0  0  0  0  0  0
    6.1233    3.6167   25.1701 O   0  0  0  0  0  0  0  0  0  0  0  0
    7.3997    3.2639   23.3501 N   0  0  0  0  0  0  0  0  0  0  0  0
    6.8281    4.3584   22.5870 C   0  0  1  0  0  0  0  0  0  0  0  0
   10.6506   -0.4397   23.0816 C   0  0  0  0  0  0  0  0  0  0  0  0
    9.1761   -0.7508   22.9114 C   0  0  1  0  0  0  0  0  0  0  0  0
    8.4032   -0.3128   24.1552 C   0  0  2  0  0  0  0  0  0  0  0  0
    8.6565   -0.0015   21.6815 C   0  0  0  0  0  0  0  0  0  0  0  0
    9.1845    1.0331   21.2726 O   0  0  0  0  0  0  0  0  0  0  0  0
    7.5199   -0.5113   21.1500 N   0  0  0  0  0  0  0  0  0  0  0  0
    6.7635    0.0077   20.0772 C   0  0  0  0  0  0  0  0  0  0  0  0
    5.5834    0.7646   20.3685 C   0  0  0  0  0  0  0  0  0  0  0  0
    5.0816    0.9729   21.6812 C   0  0  0  0  0  0  0  0  0  0  0  0
    3.9799    1.7535   21.8961 C   0  0  0  0  0  0  0  0  0  0  0  0
    3.3201    2.3566   20.8343 C   0  0  0  0  0  0  0  0  0  0  0  0
    3.7611    2.1820   19.5516 C   0  0  0  0  0  0  0  0  0  0  0  0
    4.8995    1.3811   19.2829 C   0  0  0  0  0  0  0  0  0  0  0  0
    5.4168    1.1856   17.9772 C   0  0  0  0  0  0  0  0  0  0  0  0
    6.5056    0.4768   17.7058 N   0  0  0  0  0  0  0  0  0  0  0  0
    7.1494   -0.0888   18.7381 C   0  0  0  0  0  0  0  0  0  0  0  0
   11.2983   -1.9043   21.6480 H   0  0  0  0  0  0  0  0  0  0  0  0
   14.3904    0.5377   23.2902 H   0  0  0  0  0  0  0  0  0  0  0  0
   12.7424    1.6529   24.7418 H   0  0  0  0  0  0  0  0  0  0  0  0
   10.1551    0.8563   25.8912 H   0  0  0  0  0  0  0  0  0  0  0  0
   10.3119    2.3414   24.8930 H   0  0  0  0  0  0  0  0  0  0  0  0
    8.6365    1.5591   23.5239 H   0  0  0  0  0  0  0  0  0  0  0  0
    6.8649    1.0442   25.2908 H   0  0  0  0  0  0  0  0  0  0  0  0
    7.0575    2.5430   27.1815 H   0  0  0  0  0  0  0  0  0  0  0  0
    8.0792    1.0675   27.2571 H   0  0  0  0  0  0  0  0  0  0  0  0
    8.8226    2.6559   26.8685 H   0  0  0  0  0  0  0  0  0  0  0  0
    8.1199    2.7082   22.9348 H   0  0  0  0  0  0  0  0  0  0  0  0
    7.3111    4.4094   21.6000 H   0  0  0  0  0  0  0  0  0  0  0  0
    5.7486    4.1911   22.4585 H   0  0  0  0  0  0  0  0  0  0  0  0
    6.9913    5.3043   23.1242 H   0  0  0  0  0  0  0  0  0  0  0  0
    9.0435   -1.8326   22.7617 H   0  0  0  0  0  0  0  0  0  0  0  0
    7.3249   -0.4518   23.9880 H   0  0  0  0  0  0  0  0  0  0  0  0
    8.7211   -0.9154   25.0188 H   0  0  0  0  0  0  0  0  0  0  0  0
    7.1766   -1.3534   21.5660 H   0  0  0  0  0  0  0  0  0  0  0  0
    5.5772    0.5083   22.5208 H   0  0  0  0  0  0  0  0  0  0  0  0
    3.6190    1.9024   22.9030 H   0  0  0  0  0  0  0  0  0  0  0  0
    2.4508    2.9692   21.0228 H   0  0  0  0  0  0  0  0  0  0  0  0
    3.2374    2.6584   18.7361 H   0  0  0  0  0  0  0  0  0  0  0  0
    4.8915    1.6422   17.1513 H   0  0  0  0  0  0  0  0  0  0  0  0
    8.0360   -0.6641   18.5162 H   0  0  0  0  0  0  0  0  0  0  0  0
  1  2  1  0
  2  3  2  0
  2  4  1  0
  3 15  1  0
  3 31  1  0
  4  5  2  0
  4 32  1  0
  5  6  1  0
  5 33  1  0
  6  7  1  0
  6 15  2  0
  7  8  1  0
  7 34  1  1
  7 35  1  0
  8  9  1  0
  8 17  1  0
  8 36  1  6
  9 10  1  0
  9 11  1  0
  9 37  1  1
 10 38  1  1
 10 39  1  0
 10 40  1  0
 11 12  2  0
 11 13  1  0
 13 14  1  0
 13 41  1  0
 14 42  1  6
 14 43  1  0
 14 44  1  0
 15 16  1  0
 16 17  1  0
 16 18  1  0
 16 45  1  6
 17 46  1  6
 17 47  1  0
 18 19  2  0
 18 20  1  0
 20 21  1  0
 20 48  1  0
 21 22  2  0
 21 30  1  0
 22 23  1  0
 22 27  1  0
 23 24  2  0
 23 49  1  0
 24 25  1  0
 24 50  1  0
 25 26  2  0
 25 51  1  0
 26 27  1  0
 26 52  1  0
 27 28  2  0
 28 29  1  0
 28 53  1  0
 29 30  2  0
 30 54  1  0
M  CHG  1   8   1
M  END
$$$$
