LIG(A-305)
     RDKit          3D

 33 34  0  0  0  0  0  0  0  0999 V2000
    8.5380    2.2827   22.7831 O   0  0  0  0  0  0  0  0  0  0  0  0
    9.8430    1.7086   22.6071 S   0  0  1  0  0  0  0  0  0  0  0  0
   10.3809    1.6466   21.2780 O   0  0  0  0  0  0  0  0  0  0  0  0
   10.9751    2.5746   23.6280 C   0  0  1  0  0  0  0  0  0  0  0  0
    9.8200    0.0687   23.2691 C   0  0  0  0  0  0  0  0  0  0  0  0
    9.5770   -0.1143   24.6191 C   0  0  0  0  0  0  0  0  0  0  0  0
    9.4180   -1.3943   25.1142 C   0  0  0  0  0  0  0  0  0  0  0  0
    9.5129   -2.5013   24.2772 C   0  0  0  0  0  0  0  0  0  0  0  0
    9.8009   -2.2964   22.9262 C   0  0  0  0  0  0  0  0  0  0  0  0
    9.9559   -1.0184   22.4211 C   0  0  0  0  0  0  0  0  0  0  0  0
    9.2789   -3.7893   24.7743 N   0  0  0  0  0  0  0  0  0  0  0  0
    8.9650   -3.9882   26.1963 C   0  0  1  0  0  0  0  0  0  0  0  0
    8.2560   -5.3122   26.4074 C   0  0  1  0  0  0  0  0  0  0  0  0
    9.0369   -6.4172   25.8103 N   0  0  1  0  0  0  0  0  0  0  0  0
    9.2998   -6.1813   24.3793 C   0  0  1  0  0  0  0  0  0  0  0  0
   10.0668   -4.8923   24.2182 C   0  0  2  0  0  0  0  0  0  0  0  0
   11.9813    2.1473   23.5053 H   0  0  0  0  0  0  0  0  0  0  0  0
   10.9902    3.6362   23.3402 H   0  0  0  0  0  0  0  0  0  0  0  0
   10.6640    2.4841   24.6792 H   0  0  0  0  0  0  0  0  0  0  0  0
    9.5123    0.7369   25.2806 H   0  0  0  0  0  0  0  0  0  0  0  0
    9.2172   -1.5373   26.1657 H   0  0  0  0  0  0  0  0  0  0  0  0
    9.9037   -3.1463   22.2678 H   0  0  0  0  0  0  0  0  0  0  0  0
   10.1808   -0.8691   21.3754 H   0  0  0  0  0  0  0  0  0  0  0  0
    9.8993   -3.9821   26.7768 H   0  0  0  0  0  0  0  0  0  0  0  0
    8.3141   -3.1709   26.5404 H   0  0  0  0  0  0  0  0  0  0  0  0
    8.1392   -5.4927   27.4862 H   0  0  0  0  0  0  0  0  0  0  0  0
    7.2643   -5.2718   25.9329 H   0  0  0  0  0  0  0  0  0  0  0  0
    9.9095   -6.4960   26.2924 H   0  0  0  0  0  0  0  0  0  0  0  0
    8.5230   -7.2692   25.9101 H   0  0  0  0  0  0  0  0  0  0  0  0
    9.8919   -7.0143   23.9724 H   0  0  0  0  0  0  0  0  0  0  0  0
    8.3453   -6.1109   23.8373 H   0  0  0  0  0  0  0  0  0  0  0  0
   11.0255   -4.9655   24.7528 H   0  0  0  0  0  0  0  0  0  0  0  0
   10.2557   -4.7077   23.1504 H   0  0  0  0  0  0  0  0  0  0  0  0
  1  2  2  0
  2  3  2  0
  2  4  1  0
  2  5  1  1
  4 17  1  1
  4 18  1  0
  4 19  1  0
  5  6  2  0
  5 10  1  0
  6  7  1  0
  6 20  1  0
  7  8  2  0
  7 21  1  0
  8  9  1  0
  8 11  1  0
  9 10  2  0
  9 22  1  0
 10 23  1  0
 11 12  1  0
 11 16  1  0
 12 13  1  0
 12 24  1  1
 12 25  1  0
 13 14  1  0
 13 26  1  1
 13 27  1  0
 14 15  1  0
 14 28  1  1
 14 29  1  0
 15 16  1  0
 15 30  1  6
 15 31  1  0
 16 32  1  1
 16 33  1  0
M  CHG  1  14   1
M  END
$$$$
