LIG(A-306)
     RDKit          3D

 63 67  0  0  1  0  0  0  0  0999 V2000
    8.8288    0.9894   21.2832 O   0  0  0  0  0  0  0  0  0  0  0  0
    8.3310   -0.1087   21.5323 C   0  0  0  0  0  0  0  0  0  0  0  0
    7.2430   -0.6049   20.9044 N   0  0  0  0  0  0  0  0  0  0  0  0
    6.5108   -0.0090   19.8604 C   0  0  0  0  0  0  0  0  0  0  0  0
    5.4037    0.8328   20.1925 C   0  0  0  0  0  0  0  0  0  0  0  0
    4.9198    1.0167   21.5135 C   0  0  0  0  0  0  0  0  0  0  0  0
    3.8747    1.8605   21.7666 C   0  0  0  0  0  0  0  0  0  0  0  0
    3.2634    2.5584   20.7347 C   0  0  0  0  0  0  0  0  0  0  0  0
    3.6854    2.4085   19.4466 C   0  0  0  0  0  0  0  0  0  0  0  0
    4.7575    1.5367   19.1376 C   0  0  0  0  0  0  0  0  0  0  0  0
    5.2324    1.3277   17.8205 C   0  0  0  0  0  0  0  0  0  0  0  0
    6.2505    0.5359   17.5094 N   0  0  0  0  0  0  0  0  0  0  0  0
    6.8637   -0.1060   18.5134 C   0  0  0  0  0  0  0  0  0  0  0  0
    8.9532   -1.0676   22.5832 C   0  0  1  0  0  0  0  0  0  0  0  0
   10.3792   -0.6583   22.9231 C   0  0  0  0  0  0  0  0  0  0  0  0
   10.6531    0.3667   23.8221 C   0  0  0  0  0  0  0  0  0  0  0  0
   11.9630    0.7199   24.1180 C   0  0  0  0  0  0  0  0  0  0  0  0
   13.0181    0.0581   23.5079 C   0  0  0  0  0  0  0  0  0  0  0  0
   11.4382   -1.3262   22.3200 C   0  0  0  0  0  0  0  0  0  0  0  0
   12.7342   -0.9509   22.6069 C   0  0  0  0  0  0  0  0  0  0  0  0
   14.0403   -1.7197   21.7518 Cl  0  0  0  0  0  0  0  0  0  0  0  0
    8.1244   -1.2877   23.7613 N   0  0  0  0  0  0  0  0  0  0  0  0
    7.4102   -0.3488   24.3984 C   0  0  0  0  0  0  0  0  0  0  0  0
    7.4130    0.8442   24.0963 O   0  0  0  0  0  0  0  0  0  0  0  0
    6.5714   -0.8410   25.5694 C   0  0  1  0  0  0  0  0  0  0  0  0
    6.4867   -2.2840   25.5774 O   0  0  0  0  0  0  0  0  0  0  0  0
    7.2899   -2.8849   26.6274 C   0  0  2  0  0  0  0  0  0  0  0  0
    8.0307   -1.7057   27.2623 C   0  0  1  0  0  0  0  0  0  0  0  0
    7.1725   -0.4789   26.9104 C   0  0  1  0  0  0  0  0  0  0  0  0
    8.2440   -3.9397   26.0463 C   0  0  0  0  0  0  0  0  0  0  0  0
    8.5869   -3.8826   24.8783 O   0  0  0  0  0  0  0  0  0  0  0  0
    8.7182   -4.8926   26.8723 N   0  0  0  0  0  0  0  0  0  0  0  0
    8.1864   -5.2867   28.1853 C   0  0  1  0  0  0  0  0  0  0  0  0
    9.3266   -6.0595   28.8082 C   0  0  1  0  0  0  0  0  0  0  0  0
   10.0236   -6.6874   27.6322 C   0  0  1  0  0  0  0  0  0  0  0  0
    9.8943   -5.6894   26.5012 C   0  0  1  0  0  0  0  0  0  0  0  0
    6.9206   -1.4984   21.2171 H   0  0  0  0  0  0  0  0  0  0  0  0
    5.3833    0.4829   22.3300 H   0  0  0  0  0  0  0  0  0  0  0  0
    3.5212    1.9853   22.7795 H   0  0  0  0  0  0  0  0  0  0  0  0
    2.4446    3.2277   20.9540 H   0  0  0  0  0  0  0  0  0  0  0  0
    3.1978    2.9592   18.6558 H   0  0  0  0  0  0  0  0  0  0  0  0
    4.7332    1.8470   17.0160 H   0  0  0  0  0  0  0  0  0  0  0  0
    7.6949   -0.7476   18.2608 H   0  0  0  0  0  0  0  0  0  0  0  0
    9.0363   -2.0404   22.0764 H   0  0  0  0  0  0  0  0  0  0  0  0
    9.8379    0.8939   24.2953 H   0  0  0  0  0  0  0  0  0  0  0  0
   12.1608    1.5121   24.8250 H   0  0  0  0  0  0  0  0  0  0  0  0
   14.0402    0.3256   23.7321 H   0  0  0  0  0  0  0  0  0  0  0  0
   11.2475   -2.1349   21.6302 H   0  0  0  0  0  0  0  0  0  0  0  0
    8.0848   -2.2182   24.1255 H   0  0  0  0  0  0  0  0  0  0  0  0
    5.5642   -0.4047   25.4967 H   0  0  0  0  0  0  0  0  0  0  0  0
    6.6435   -3.3572   27.3818 H   0  0  0  0  0  0  0  0  0  0  0  0
    8.1004   -1.8318   28.3528 H   0  0  0  0  0  0  0  0  0  0  0  0
    9.0414   -1.6078   26.8391 H   0  0  0  0  0  0  0  0  0  0  0  0
    7.7933    0.4257   26.8315 H   0  0  0  0  0  0  0  0  0  0  0  0
    6.3866   -0.3197   27.6634 H   0  0  0  0  0  0  0  0  0  0  0  0
    7.9341   -4.4025   28.7891 H   0  0  0  0  0  0  0  0  0  0  0  0
    7.2950   -5.9215   28.0744 H   0  0  0  0  0  0  0  0  0  0  0  0
   10.0054   -5.3856   29.3514 H   0  0  0  0  0  0  0  0  0  0  0  0
    8.9476   -6.8301   29.4956 H   0  0  0  0  0  0  0  0  0  0  0  0
   11.0833   -6.8679   27.8656 H   0  0  0  0  0  0  0  0  0  0  0  0
    9.5404   -7.6381   27.3623 H   0  0  0  0  0  0  0  0  0  0  0  0
    9.7334   -6.2027   25.5417 H   0  0  0  0  0  0  0  0  0  0  0  0
   10.7912   -5.0563   26.4324 H   0  0  0  0  0  0  0  0  0  0  0  0
  1  2  2  0
  2  3  1  0
  2 14  1  0
  3  4  1  0
  3 37  1  0
  4  5  2  0
  4 13  1  0
  5  6  1  0
  5 10  1  0
  6  7  2  0
  6 38  1  0
  7  8  1  0
  7 39  1  0
  8  9  2  0
  8 40  1  0
  9 10  1  0
  9 41  1  0
 10 11  2  0
 11 12  1  0
 11 42  1  0
 12 13  2  0
 13 43  1  0
 14 15  1  0
 14 22  1  0
 14 44  1  6
 15 16  2  0
 15 19  1  0
 16 17  1  0
 16 45  1  0
 17 18  2  0
 17 46  1  0
 18 20  1  0
 18 47  1  0
 19 20  2  0
 19 48  1  0
 20 21  1  0
 22 23  1  0
 22 49  1  0
 23 24  2  0
 23 25  1  0
 25 26  1  0
 25 29  1  0
 25 50  1  6
 26 27  1  0
 27 28  1  0
 27 30  1  0
 27 51  1  1
 28 29  1  0
 28 52  1  1
 28 53  1  0
 29 54  1  6
 29 55  1  0
 30 31  2  0
 30 32  1  0
 32 33  1  0
 32 36  1  0
 33 34  1  0
 33 56  1  1
 33 57  1  0
 34 35  1  0
 34 58  1  1
 34 59  1  0
 35 36  1  0
 35 60  1  1
 35 61  1  0
 36 62  1  6
 36 63  1  0
M  END
$$$$
