LIG(A-306)
     RDKit          3D

 44 46  0  0  0  0  0  0  0  0999 V2000
   14.0388   -1.3530   21.6473 Cl  0  0  0  0  0  0  0  0  0  0  0  0
   12.6907   -0.9008   22.6531 C   0  0  0  0  0  0  0  0  0  0  0  0
   12.8836    0.0092   23.6740 C   0  0  0  0  0  0  0  0  0  0  0  0
   11.7955    0.3723   24.4519 C   0  0  0  0  0  0  0  0  0  0  0  0
   10.5365   -0.1407   24.1757 C   0  0  0  0  0  0  0  0  0  0  0  0
   11.4467   -1.4318   22.3790 C   0  0  0  0  0  0  0  0  0  0  0  0
   10.3406   -1.0187   23.1158 C   0  0  0  0  0  0  0  0  0  0  0  0
    8.9457   -1.3627   22.6426 C   0  0  1  0  0  0  0  0  0  0  0  0
    8.4358   -0.2708   21.7205 C   0  0  0  0  0  0  0  0  0  0  0  0
    9.1979    0.5492   21.2155 O   0  0  0  0  0  0  0  0  0  0  0  0
    7.1019   -0.2417   21.5373 N   0  0  0  0  0  0  0  0  0  0  0  0
    6.3740    0.0222   20.3612 C   0  0  0  0  0  0  0  0  0  0  0  0
    6.8322   -0.2089   19.0633 C   0  0  0  0  0  0  0  0  0  0  0  0
    6.2713    0.2680   17.9432 N   0  0  0  0  0  0  0  0  0  0  0  0
    5.1964    1.0261   18.0750 C   0  0  0  0  0  0  0  0  0  0  0  0
    5.2190    0.8512   20.5010 C   0  0  0  0  0  0  0  0  0  0  0  0
    4.6192    1.3722   19.3209 C   0  0  0  0  0  0  0  0  0  0  0  0
    3.5552    2.2942   19.4457 C   0  0  0  0  0  0  0  0  0  0  0  0
    3.1291    2.7053   20.6716 C   0  0  0  0  0  0  0  0  0  0  0  0
    4.7329    1.2863   21.7579 C   0  0  0  0  0  0  0  0  0  0  0  0
    3.7159    2.2084   21.8437 C   0  0  0  0  0  0  0  0  0  0  0  0
    3.2228    2.6155   23.1956 C   0  0  0  0  0  0  0  0  0  0  0  0
    2.4147    1.9026   23.7646 O   0  0  0  0  0  0  0  0  0  0  0  0
    3.6677    3.7675   23.7276 N   0  0  0  0  0  0  0  0  0  0  0  0
    4.5498    4.7214   23.0556 C   0  0  1  0  0  0  0  0  0  0  0  0
    3.3246    4.1276   25.1025 C   0  0  1  0  0  0  0  0  0  0  0  0
   13.8609    0.4287   23.8620 H   0  0  0  0  0  0  0  0  0  0  0  0
   11.9282    1.0573   25.2762 H   0  0  0  0  0  0  0  0  0  0  0  0
    9.6975    0.1459   24.7923 H   0  0  0  0  0  0  0  0  0  0  0  0
   11.3319   -2.1657   21.5950 H   0  0  0  0  0  0  0  0  0  0  0  0
    8.9690   -2.3190   22.0994 H   0  0  0  0  0  0  0  0  0  0  0  0
    8.2761   -1.4505   23.5110 H   0  0  0  0  0  0  0  0  0  0  0  0
    6.5517   -0.4345   22.3498 H   0  0  0  0  0  0  0  0  0  0  0  0
    7.7130   -0.8240   18.9520 H   0  0  0  0  0  0  0  0  0  0  0  0
    4.7298    1.4045   17.1775 H   0  0  0  0  0  0  0  0  0  0  0  0
    3.0744    2.6773   18.5577 H   0  0  0  0  0  0  0  0  0  0  0  0
    2.3269    3.4250   20.7421 H   0  0  0  0  0  0  0  0  0  0  0  0
    5.1674    0.8881   22.6629 H   0  0  0  0  0  0  0  0  0  0  0  0
    4.7500    5.5710   23.7251 H   0  0  0  0  0  0  0  0  0  0  0  0
    5.4978    4.2260   22.7987 H   0  0  0  0  0  0  0  0  0  0  0  0
    4.0653    5.0847   22.1373 H   0  0  0  0  0  0  0  0  0  0  0  0
    3.7786    5.0979   25.3522 H   0  0  0  0  0  0  0  0  0  0  0  0
    2.2312    4.1983   25.2009 H   0  0  0  0  0  0  0  0  0  0  0  0
    3.7054    3.3573   25.7891 H   0  0  0  0  0  0  0  0  0  0  0  0
  1  2  1  0
  2  3  2  0
  2  6  1  0
  3  4  1  0
  3 27  1  0
  4  5  2  0
  4 28  1  0
  5  7  1  0
  5 29  1  0
  6  7  2  0
  6 30  1  0
  7  8  1  0
  8  9  1  0
  8 31  1  6
  8 32  1  0
  9 10  2  0
  9 11  1  0
 11 12  1  0
 11 33  1  0
 12 13  2  0
 12 16  1  0
 13 14  1  0
 13 34  1  0
 14 15  2  0
 15 17  1  0
 15 35  1  0
 16 17  2  0
 16 20  1  0
 17 18  1  0
 18 19  2  0
 18 36  1  0
 19 21  1  0
 19 37  1  0
 20 21  2  0
 20 38  1  0
 21 22  1  0
 22 23  2  0
 22 24  1  0
 24 25  1  0
 24 26  1  0
 25 39  1  1
 25 40  1  0
 25 41  1  0
 26 42  1  1
 26 43  1  0
 26 44  1  0
M  END
$$$$
