LIG(A-306)
     RDKit          3D

 53 57  0  0  1  0  0  0  0  0999 V2000
   10.9307    3.0275   24.5976 O   0  0  0  0  0  0  0  0  0  0  0  0
   10.5439    1.9225   24.2635 C   0  0  0  0  0  0  0  0  0  0  0  0
    9.2620    1.5142   24.4746 N   0  0  0  0  0  0  0  0  0  0  0  0
    8.3799    2.2999   25.3187 C   0  0  1  0  0  0  0  0  0  0  0  0
    7.6476    3.4468   24.6378 C   0  0  0  0  0  0  0  0  0  0  0  0
    6.8005    4.0916   25.2559 O   0  0  0  0  0  0  0  0  0  0  0  0
    7.9355    3.6980   23.3658 N   0  0  0  0  0  0  0  0  0  0  0  0
    7.1702    4.6419   22.5689 C   0  0  1  0  0  0  0  0  0  0  0  0
   11.4331    0.9737   23.5694 C   0  0  0  0  0  0  0  0  0  0  0  0
   12.8000    1.2420   23.5264 C   0  0  0  0  0  0  0  0  0  0  0  0
   13.6592    0.3893   22.8613 C   0  0  0  0  0  0  0  0  0  0  0  0
   13.1504   -0.7448   22.2622 C   0  0  0  0  0  0  0  0  0  0  0  0
   14.2276   -1.8005   21.3981 Cl  0  0  0  0  0  0  0  0  0  0  0  0
   11.8025   -1.0551   22.3052 C   0  0  0  0  0  0  0  0  0  0  0  0
   10.9273   -0.1763   22.9394 C   0  0  0  0  0  0  0  0  0  0  0  0
    9.4143   -0.3667   22.8564 C   0  0  1  0  0  0  0  0  0  0  0  0
    8.8303    0.1431   24.1995 C   0  0  2  0  0  0  0  0  0  0  0  0
    8.8101    0.4643   21.7235 C   0  0  0  0  0  0  0  0  0  0  0  0
    9.1878    1.5644   21.3596 O   0  0  0  0  0  0  0  0  0  0  0  0
    7.7682   -0.2329   21.1945 N   0  0  0  0  0  0  0  0  0  0  0  0
    7.5945   -1.5540   21.8244 C   0  0  1  0  0  0  0  0  0  0  0  0
    8.9416   -1.8007   22.5003 C   0  0  2  0  0  0  0  0  0  0  0  0
    6.9201    0.2330   20.1396 C   0  0  0  0  0  0  0  0  0  0  0  0
    5.7879    1.0457   20.4417 C   0  0  0  0  0  0  0  0  0  0  0  0
    5.3779    1.3825   21.7598 C   0  0  0  0  0  0  0  0  0  0  0  0
    4.2887    2.1803   21.9739 C   0  0  0  0  0  0  0  0  0  0  0  0
    3.5576    2.6862   20.9040 C   0  0  0  0  0  0  0  0  0  0  0  0
    3.9126    2.3904   19.6189 C   0  0  0  0  0  0  0  0  0  0  0  0
    5.0267    1.5566   19.3508 C   0  0  0  0  0  0  0  0  0  0  0  0
    5.4377    1.2078   18.0347 C   0  0  0  0  0  0  0  0  0  0  0  0
    6.4919    0.4471   17.7596 N   0  0  0  0  0  0  0  0  0  0  0  0
    7.2010   -0.0199   18.7986 C   0  0  0  0  0  0  0  0  0  0  0  0
    7.6236    1.6205   25.7387 H   0  0  0  0  0  0  0  0  0  0  0  0
    8.9846    2.7242   26.1338 H   0  0  0  0  0  0  0  0  0  0  0  0
    8.7055    3.2211   22.9418 H   0  0  0  0  0  0  0  0  0  0  0  0
    7.5875    4.6870   21.5521 H   0  0  0  0  0  0  0  0  0  0  0  0
    6.1211    4.3146   22.5204 H   0  0  0  0  0  0  0  0  0  0  0  0
    7.2224    5.6386   23.0311 H   0  0  0  0  0  0  0  0  0  0  0  0
   13.1899    2.1222   24.0161 H   0  0  0  0  0  0  0  0  0  0  0  0
   14.7157    0.6073   22.8107 H   0  0  0  0  0  0  0  0  0  0  0  0
   11.4346   -1.9648   21.8540 H   0  0  0  0  0  0  0  0  0  0  0  0
    7.7319    0.1159   24.1470 H   0  0  0  0  0  0  0  0  0  0  0  0
    9.1749   -0.5122   25.0130 H   0  0  0  0  0  0  0  0  0  0  0  0
    6.7805   -1.5340   22.5639 H   0  0  0  0  0  0  0  0  0  0  0  0
    7.3852   -2.3261   21.0694 H   0  0  0  0  0  0  0  0  0  0  0  0
    8.8245   -2.4155   23.4049 H   0  0  0  0  0  0  0  0  0  0  0  0
    9.6463   -2.2910   21.8126 H   0  0  0  0  0  0  0  0  0  0  0  0
    5.9344    1.0031   22.6040 H   0  0  0  0  0  0  0  0  0  0  0  0
    3.9927    2.4203   22.9844 H   0  0  0  0  0  0  0  0  0  0  0  0
    2.7020    3.3182   21.0911 H   0  0  0  0  0  0  0  0  0  0  0  0
    3.3385    2.7958   18.7989 H   0  0  0  0  0  0  0  0  0  0  0  0
    4.8563    1.5852   17.2065 H   0  0  0  0  0  0  0  0  0  0  0  0
    8.0570   -0.6404   18.5780 H   0  0  0  0  0  0  0  0  0  0  0  0
  1  2  2  0
  2  3  1  0
  2  9  1  0
  3  4  1  0
  3 17  1  0
  4  5  1  0
  4 33  1  1
  4 34  1  0
  5  6  2  0
  5  7  1  0
  7  8  1  0
  7 35  1  0
  8 36  1  6
  8 37  1  0
  8 38  1  0
  9 10  2  0
  9 15  1  0
 10 11  1  0
 10 39  1  0
 11 12  2  0
 11 40  1  0
 12 13  1  0
 12 14  1  0
 14 15  2  0
 14 41  1  0
 15 16  1  0
 16 17  1  0
 16 18  1  6
 16 22  1  0
 17 42  1  6
 17 43  1  0
 18 19  2  0
 18 20  1  0
 20 21  1  0
 20 23  1  0
 21 22  1  0
 21 44  1  1
 21 45  1  0
 22 46  1  1
 22 47  1  0
 23 24  2  0
 23 32  1  0
 24 25  1  0
 24 29  1  0
 25 26  2  0
 25 48  1  0
 26 27  1  0
 26 49  1  0
 27 28  2  0
 27 50  1  0
 28 29  1  0
 28 51  1  0
 29 30  2  0
 30 31  1  0
 30 52  1  0
 31 32  2  0
 32 53  1  0
M  END
$$$$
