LIG(A-306)
     RDKit          3D

 45 48  0  0  1  0  0  0  0  0999 V2000
    9.1645    1.2244   21.4309 O   0  0  0  0  0  0  0  0  0  0  0  0
    8.8045    0.1251   21.8305 C   0  0  0  0  0  0  0  0  0  0  0  0
    8.1280   -0.8711   20.8863 C   0  0  1  0  0  0  0  0  0  0  0  0
    7.2791   -0.2124   19.9107 N   0  0  0  0  0  0  0  0  0  0  0  0
    6.1497    0.5237   20.1058 C   0  0  0  0  0  0  0  0  0  0  0  0
    5.4692    0.9589   21.2333 C   0  0  0  0  0  0  0  0  0  0  0  0
    4.3644    1.7777   21.0455 C   0  0  0  0  0  0  0  0  0  0  0  0
    3.9517    2.1407   19.7667 C   0  0  0  0  0  0  0  0  0  0  0  0
    4.6279    1.6854   18.6436 C   0  0  0  0  0  0  0  0  0  0  0  0
    5.7418    0.8687   18.8205 C   0  0  0  0  0  0  0  0  0  0  0  0
    6.6220    0.3181   17.9161 N   0  0  0  0  0  0  0  0  0  0  0  0
    7.5389   -0.3254   18.5826 N   0  0  0  0  0  0  0  0  0  0  0  0
    8.9841   -0.2662   23.1236 N   0  0  0  0  0  0  0  0  0  0  0  0
   10.1420    0.1173   23.9487 C   0  0  2  0  0  0  0  0  0  0  0  0
   10.0243    1.5317   24.5427 C   0  0  1  0  0  0  0  0  0  0  0  0
    8.6530    1.8446   25.1548 C   0  0  1  0  0  0  0  0  0  0  0  0
    7.8585    0.6753   25.7585 C   0  0  0  0  0  0  0  0  0  0  0  0
    7.1319   -0.2683   24.7987 C   0  0  0  0  0  0  0  0  0  0  0  0
    7.9680   -1.0711   23.8081 C   0  0  1  0  0  0  0  0  0  0  0  0
   11.4838   -0.2328   23.3384 C   0  0  0  0  0  0  0  0  0  0  0  0
   11.7092   -1.5045   22.8316 C   0  0  0  0  0  0  0  0  0  0  0  0
   12.9392   -1.8453   22.2963 C   0  0  0  0  0  0  0  0  0  0  0  0
   13.9602   -0.9249   22.2652 C   0  0  0  0  0  0  0  0  0  0  0  0
   13.7581    0.3378   22.7794 C   0  0  0  0  0  0  0  0  0  0  0  0
   12.5259    0.6855   23.3085 C   0  0  0  0  0  0  0  0  0  0  0  0
    8.9055   -1.4384   20.3537 H   0  0  0  0  0  0  0  0  0  0  0  0
    7.5132   -1.5620   21.4817 H   0  0  0  0  0  0  0  0  0  0  0  0
    5.7883    0.6704   22.2240 H   0  0  0  0  0  0  0  0  0  0  0  0
    3.8171    2.1384   21.9039 H   0  0  0  0  0  0  0  0  0  0  0  0
    3.0935    2.7853   19.6468 H   0  0  0  0  0  0  0  0  0  0  0  0
    4.2971    1.9590   17.6526 H   0  0  0  0  0  0  0  0  0  0  0  0
   10.0751   -0.5389   24.8290 H   0  0  0  0  0  0  0  0  0  0  0  0
   10.7859    1.6400   25.3290 H   0  0  0  0  0  0  0  0  0  0  0  0
   10.2186    2.2597   23.7412 H   0  0  0  0  0  0  0  0  0  0  0  0
    8.8107    2.5829   25.9547 H   0  0  0  0  0  0  0  0  0  0  0  0
    8.0329    2.2891   24.3624 H   0  0  0  0  0  0  0  0  0  0  0  0
    7.8148    0.5248   26.8270 H   0  0  0  0  0  0  0  0  0  0  0  0
    6.0564   -0.3633   24.8220 H   0  0  0  0  0  0  0  0  0  0  0  0
    7.2954   -1.5019   23.0517 H   0  0  0  0  0  0  0  0  0  0  0  0
    8.4734   -1.8817   24.3536 H   0  0  0  0  0  0  0  0  0  0  0  0
   10.9158   -2.2368   22.8550 H   0  0  0  0  0  0  0  0  0  0  0  0
   13.0976   -2.8380   21.9016 H   0  0  0  0  0  0  0  0  0  0  0  0
   14.9166   -1.1904   21.8397 H   0  0  0  0  0  0  0  0  0  0  0  0
   14.5627    1.0583   22.7697 H   0  0  0  0  0  0  0  0  0  0  0  0
   12.3739    1.6799   23.7014 H   0  0  0  0  0  0  0  0  0  0  0  0
  1  2  2  0
  2  3  1  0
  2 13  1  0
  3  4  1  0
  3 26  1  6
  3 27  1  0
  4  5  1  0
  4 12  1  0
  5  6  2  0
  5 10  1  0
  6  7  1  0
  6 28  1  0
  7  8  2  0
  7 29  1  0
  8  9  1  0
  8 30  1  0
  9 10  2  0
  9 31  1  0
 10 11  1  0
 11 12  2  0
 13 14  1  0
 13 19  1  0
 14 15  1  0
 14 20  1  0
 14 32  1  1
 15 16  1  0
 15 33  1  1
 15 34  1  0
 16 17  1  0
 16 35  1  1
 16 36  1  0
 17 18  2  0
 17 37  1  0
 18 19  1  0
 18 38  1  0
 19 39  1  6
 19 40  1  0
 20 21  2  0
 20 25  1  0
 21 22  1  0
 21 41  1  0
 22 23  2  0
 22 42  1  0
 23 24  1  0
 23 43  1  0
 24 25  2  0
 24 44  1  0
 25 45  1  0
M  END
$$$$
