LIG(A-305)
     RDKit          3D

 32 32  0  0  1  0  0  0  0  0999 V2000
    6.9044   -4.0312   20.0170 C   0  0  1  0  0  0  0  0  0  0  0  0
    7.5505   -2.7702   19.4700 C   0  0  0  0  0  0  0  0  0  0  0  0
    7.8915   -2.6813   18.3030 O   0  0  0  0  0  0  0  0  0  0  0  0
    7.7046   -1.7152   20.3030 N   0  0  0  0  0  0  0  0  0  0  0  0
    7.4057   -0.3912   19.7569 C   0  0  1  0  0  0  0  0  0  0  0  0
    5.9567   -0.2351   19.3389 C   0  0  1  0  0  0  0  0  0  0  0  0
    5.8008    0.8368   18.2919 C   0  0  0  0  0  0  0  0  0  0  0  0
    6.5938    0.9278   17.3499 O   0  0  0  0  0  0  0  0  0  0  0  0
    4.8098    1.6949   18.4858 N   0  0  0  0  0  0  0  0  0  0  0  0
    8.2755   -1.8062   21.6590 C   0  0  2  0  0  0  0  0  0  0  0  0
    8.0816   -0.6072   22.6009 C   0  0  1  0  0  0  0  0  0  0  0  0
    9.7107    0.1277   22.6260 S   0  0  1  0  0  0  0  0  0  0  0  0
    9.9017    0.9596   21.4689 O   0  0  0  0  0  0  0  0  0  0  0  0
    9.9697    0.7077   23.9179 O   0  0  0  0  0  0  0  0  0  0  0  0
   10.5345   -1.2944   22.4800 C   0  0  1  0  0  0  0  0  0  0  0  0
    9.7635   -2.0854   21.4310 C   0  0  1  0  0  0  0  0  0  0  0  0
    6.8171   -4.7774   19.2136 H   0  0  0  0  0  0  0  0  0  0  0  0
    7.5245   -4.4380   20.8294 H   0  0  0  0  0  0  0  0  0  0  0  0
    5.9033   -3.7915   20.4048 H   0  0  0  0  0  0  0  0  0  0  0  0
    7.6322    0.3636   20.5244 H   0  0  0  0  0  0  0  0  0  0  0  0
    8.0442   -0.2227   18.8772 H   0  0  0  0  0  0  0  0  0  0  0  0
    5.5970   -1.1907   18.9295 H   0  0  0  0  0  0  0  0  0  0  0  0
    5.3567    0.0351   20.2204 H   0  0  0  0  0  0  0  0  0  0  0  0
    4.6788    2.4586   17.8537 H   0  0  0  0  0  0  0  0  0  0  0  0
    4.1931    1.5788   19.2644 H   0  0  0  0  0  0  0  0  0  0  0  0
    7.8451   -2.6886   22.1551 H   0  0  0  0  0  0  0  0  0  0  0  0
    7.3343    0.0950   22.2028 H   0  0  0  0  0  0  0  0  0  0  0  0
    7.7776   -0.9355   23.6059 H   0  0  0  0  0  0  0  0  0  0  0  0
   11.5667   -1.1117   22.1462 H   0  0  0  0  0  0  0  0  0  0  0  0
   10.5492   -1.8338   23.4385 H   0  0  0  0  0  0  0  0  0  0  0  0
    9.9672   -3.1604   21.5443 H   0  0  0  0  0  0  0  0  0  0  0  0
   10.0579   -1.7606   20.4221 H   0  0  0  0  0  0  0  0  0  0  0  0
  1  2  1  0
  1 17  1  6
  1 18  1  0
  1 19  1  0
  2  3  2  0
  2  4  1  0
  4  5  1  0
  4 10  1  0
  5  6  1  0
  5 20  1  1
  5 21  1  0
  6  7  1  0
  6 22  1  6
  6 23  1  0
  7  8  2  0
  7  9  1  0
  9 24  1  0
  9 25  1  0
 10 11  1  0
 10 16  1  0
 10 26  1  1
 12 11  1  1
 11 27  1  6
 11 28  1  0
 12 13  2  0
 12 14  2  0
 12 15  1  0
 15 16  1  0
 15 29  1  6
 15 30  1  0
 16 31  1  6
 16 32  1  0
M  END
$$$$
