LIG(A-305)
     RDKit          3D

 25 26  0  0  0  0  0  0  0  0999 V2000
    7.2871   -3.8500   21.2793 N   0  0  0  0  0  0  0  0  0  0  0  0
    7.8695   -4.7730   27.6253 C   0  0  1  0  0  0  0  0  0  0  0  0
    7.7064   -4.8430   26.2083 O   0  0  0  0  0  0  0  0  0  0  0  0
    6.5984   -5.4540   25.7113 C   0  0  0  0  0  0  0  0  0  0  0  0
    5.6805   -6.1830   26.4644 C   0  0  0  0  0  0  0  0  0  0  0  0
    4.5764   -6.7720   25.8415 C   0  0  0  0  0  0  0  0  0  0  0  0
    4.3713   -6.6500   24.4845 C   0  0  0  0  0  0  0  0  0  0  0  0
    5.2963   -5.9220   23.7464 C   0  0  0  0  0  0  0  0  0  0  0  0
    6.7252   -4.6130   22.2823 C   0  0  0  0  0  0  0  0  0  0  0  0
    6.7870   -3.7060   20.0133 C   0  0  0  0  0  0  0  0  0  0  0  0
    7.5929   -2.8130   19.1003 C   0  0  1  0  0  0  0  0  0  0  0  0
    6.4163   -5.3170   24.3374 C   0  0  0  0  0  0  0  0  0  0  0  0
    7.2493   -4.6240   23.4743 N   0  0  0  0  0  0  0  0  0  0  0  0
    5.7620   -4.2650   19.6584 O   0  0  0  0  0  0  0  0  0  0  0  0
    5.3032   -5.5990   22.0334 S   0  0  0  0  0  0  0  0  0  0  0  0
    8.1318   -3.3605   21.4957 H   0  0  0  0  0  0  0  0  0  0  0  0
    8.8091   -4.2521   27.8614 H   0  0  0  0  0  0  0  0  0  0  0  0
    7.0247   -4.2224   28.0647 H   0  0  0  0  0  0  0  0  0  0  0  0
    7.9001   -5.7908   28.0415 H   0  0  0  0  0  0  0  0  0  0  0  0
    5.8219   -6.2930   27.5294 H   0  0  0  0  0  0  0  0  0  0  0  0
    3.8705   -7.3336   26.4353 H   0  0  0  0  0  0  0  0  0  0  0  0
    3.5164   -7.1070   24.0084 H   0  0  0  0  0  0  0  0  0  0  0  0
    7.1096   -2.7649   18.1133 H   0  0  0  0  0  0  0  0  0  0  0  0
    7.6481   -1.8024   19.5311 H   0  0  0  0  0  0  0  0  0  0  0  0
    8.6086   -3.2211   18.9914 H   0  0  0  0  0  0  0  0  0  0  0  0
  1  9  1  0
  1 10  1  0
  1 16  1  0
  2  3  1  0
  2 17  1  6
  2 18  1  0
  2 19  1  0
  3  4  1  0
  4  5  2  0
  4 12  1  0
  5  6  1  0
  5 20  1  0
  6  7  2  0
  6 21  1  0
  7  8  1  0
  7 22  1  0
  8 12  2  0
  8 15  1  0
  9 13  2  0
  9 15  1  0
 10 11  1  0
 10 14  2  0
 11 23  1  6
 11 24  1  0
 11 25  1  0
 12 13  1  0
M  END
$$$$
