LIG(A-306)
     RDKit          3D

 37 39  0  0  0  0  0  0  0  0999 V2000
    9.0191    0.7258   21.0180 O   0  0  0  0  0  0  0  0  0  0  0  0
    8.3703   -0.2133   21.4750 C   0  0  0  0  0  0  0  0  0  0  0  0
    8.8365   -0.9912   22.6920 C   0  0  1  0  0  0  0  0  0  0  0  0
   10.2545   -0.6690   23.1109 C   0  0  0  0  0  0  0  0  0  0  0  0
   10.5134    0.1010   24.2379 C   0  0  0  0  0  0  0  0  0  0  0  0
   11.8114    0.4722   24.5558 C   0  0  0  0  0  0  0  0  0  0  0  0
   12.8614    0.0724   23.7457 C   0  0  0  0  0  0  0  0  0  0  0  0
   11.3275   -1.0908   22.3318 C   0  0  0  0  0  0  0  0  0  0  0  0
   12.6344   -0.7306   22.6297 C   0  0  0  0  0  0  0  0  0  0  0  0
   13.7824   -1.2334   21.7896 C   0  0  1  0  0  0  0  0  0  0  0  0
    7.1953   -0.6315   20.9531 N   0  0  0  0  0  0  0  0  0  0  0  0
    6.4751   -0.0726   19.8702 C   0  0  0  0  0  0  0  0  0  0  0  0
    5.3770    0.7982   20.1563 C   0  0  0  0  0  0  0  0  0  0  0  0
    4.8880    1.0531   21.4653 C   0  0  0  0  0  0  0  0  0  0  0  0
    3.8399    1.9069   21.6694 C   0  0  0  0  0  0  0  0  0  0  0  0
    3.2277    2.5479   20.5995 C   0  0  0  0  0  0  0  0  0  0  0  0
    3.6577    2.3320   19.3215 C   0  0  0  0  0  0  0  0  0  0  0  0
    4.7368    1.4522   19.0613 C   0  0  0  0  0  0  0  0  0  0  0  0
    5.2177    1.1783   17.7573 C   0  0  0  0  0  0  0  0  0  0  0  0
    6.2259    0.3585   17.4902 N   0  0  0  0  0  0  0  0  0  0  0  0
    6.8230   -0.2455   18.5281 C   0  0  0  0  0  0  0  0  0  0  0  0
    8.1647   -0.7590   23.5314 H   0  0  0  0  0  0  0  0  0  0  0  0
    8.7775   -2.0652   22.4615 H   0  0  0  0  0  0  0  0  0  0  0  0
    9.6968    0.4132   24.8719 H   0  0  0  0  0  0  0  0  0  0  0  0
   12.0030    1.0719   25.4333 H   0  0  0  0  0  0  0  0  0  0  0  0
   13.8673    0.3866   23.9816 H   0  0  0  0  0  0  0  0  0  0  0  0
   11.1381   -1.7157   21.4715 H   0  0  0  0  0  0  0  0  0  0  0  0
   14.4532   -1.8438   22.4120 H   0  0  0  0  0  0  0  0  0  0  0  0
   13.3915   -1.8451   20.9632 H   0  0  0  0  0  0  0  0  0  0  0  0
   14.3397   -0.3777   21.3806 H   0  0  0  0  0  0  0  0  0  0  0  0
    6.7845   -1.4343   21.3852 H   0  0  0  0  0  0  0  0  0  0  0  0
    5.3505    0.5658   22.3109 H   0  0  0  0  0  0  0  0  0  0  0  0
    3.4840    2.0851   22.6734 H   0  0  0  0  0  0  0  0  0  0  0  0
    2.4043    3.2229   20.7802 H   0  0  0  0  0  0  0  0  0  0  0  0
    3.1700    2.8371   18.5008 H   0  0  0  0  0  0  0  0  0  0  0  0
    4.7321    1.6688   16.9267 H   0  0  0  0  0  0  0  0  0  0  0  0
    7.6380   -0.9193   18.3090 H   0  0  0  0  0  0  0  0  0  0  0  0
  1  2  2  0
  2  3  1  0
  2 11  1  0
  3  4  1  0
  3 22  1  1
  3 23  1  0
  4  5  2  0
  4  8  1  0
  5  6  1  0
  5 24  1  0
  6  7  2  0
  6 25  1  0
  7  9  1  0
  7 26  1  0
  8  9  2  0
  8 27  1  0
  9 10  1  0
 10 28  1  1
 10 29  1  0
 10 30  1  0
 11 12  1  0
 11 31  1  0
 12 13  2  0
 12 21  1  0
 13 14  1  0
 13 18  1  0
 14 15  2  0
 14 32  1  0
 15 16  1  0
 15 33  1  0
 16 17  2  0
 16 34  1  0
 17 18  1  0
 17 35  1  0
 18 19  2  0
 19 20  1  0
 19 36  1  0
 20 21  2  0
 21 37  1  0
M  END
$$$$
