LIG(A-305)
     RDKit          3D

 27 28  0  0  0  0  0  0  0  0999 V2000
    8.7404   -0.2787   21.3673 C   0  0  0  0  0  0  0  0  0  0  0  0
   10.6675   -0.5428   22.8361 C   0  0  0  0  0  0  0  0  0  0  0  0
   10.7086    0.2842   23.9391 C   0  0  0  0  0  0  0  0  0  0  0  0
   11.9167    0.7891   24.3530 C   0  0  0  0  0  0  0  0  0  0  0  0
   13.0736    0.4730   23.6549 C   0  0  0  0  0  0  0  0  0  0  0  0
   13.0235   -0.3540   22.5459 C   0  0  0  0  0  0  0  0  0  0  0  0
   11.8094   -0.8599   22.1250 C   0  0  0  0  0  0  0  0  0  0  0  0
    6.7503   -0.0026   19.8774 C   0  0  0  0  0  0  0  0  0  0  0  0
    5.5483    0.6244   20.1635 C   0  0  0  0  0  0  0  0  0  0  0  0
    4.9203    1.2895   19.1226 C   0  0  0  0  0  0  0  0  0  0  0  0
    5.5102    1.2614   17.8645 C   0  0  0  0  0  0  0  0  0  0  0  0
    7.2902    0.0283   18.6024 C   0  0  0  0  0  0  0  0  0  0  0  0
    9.3784   -1.0148   22.4322 N   0  0  0  0  0  0  0  0  0  0  0  0
    7.4303   -0.6967   20.9374 N   0  0  0  0  0  0  0  0  0  0  0  0
    6.6571    0.6624   17.6514 N   0  0  0  0  0  0  0  0  0  0  0  0
    9.2954    0.6382   20.8602 O   0  0  0  0  0  0  0  0  0  0  0  0
    9.8018    0.5316   24.4708 H   0  0  0  0  0  0  0  0  0  0  0  0
   11.9663    1.4310   25.2202 H   0  0  0  0  0  0  0  0  0  0  0  0
   14.0216    0.8759   23.9797 H   0  0  0  0  0  0  0  0  0  0  0  0
   13.9292   -0.6022   22.0126 H   0  0  0  0  0  0  0  0  0  0  0  0
   11.7531   -1.4942   21.2527 H   0  0  0  0  0  0  0  0  0  0  0  0
    5.1197    0.5962   21.1545 H   0  0  0  0  0  0  0  0  0  0  0  0
    3.9926    1.8180   19.2853 H   0  0  0  0  0  0  0  0  0  0  0  0
    5.0100    1.7465   17.0394 H   0  0  0  0  0  0  0  0  0  0  0  0
    8.2270   -0.4677   18.3958 H   0  0  0  0  0  0  0  0  0  0  0  0
    8.9455   -1.8071   22.8620 H   0  0  0  0  0  0  0  0  0  0  0  0
    6.9895   -1.4772   21.3806 H   0  0  0  0  0  0  0  0  0  0  0  0
  1 13  1  0
  1 14  1  0
  1 16  2  0
  2  3  2  0
  2  7  1  0
  2 13  1  0
  3  4  1  0
  3 17  1  0
  4  5  2  0
  4 18  1  0
  5  6  1  0
  5 19  1  0
  6  7  2  0
  6 20  1  0
  7 21  1  0
  8  9  2  0
  8 12  1  0
  8 14  1  0
  9 10  1  0
  9 22  1  0
 10 11  2  0
 10 23  1  0
 11 15  1  0
 11 24  1  0
 12 15  2  0
 12 25  1  0
 13 26  1  0
 14 27  1  0
M  END
$$$$
