LIG(A-305)
     RDKit          3D

 40 41  0  0  1  0  0  0  0  0999 V2000
    7.7928   -2.6204   20.9381 O   0  0  0  0  0  0  0  0  0  0  0  0
    7.9449   -1.6934   21.7241 C   0  0  0  0  0  0  0  0  0  0  0  0
    8.5748   -1.8964   23.1031 C   0  0  2  0  0  0  0  0  0  0  0  0
    9.9639   -1.2704   23.1461 C   0  0  0  0  0  0  0  0  0  0  0  0
   10.9209   -1.5885   22.1901 C   0  0  0  0  0  0  0  0  0  0  0  0
   12.1499   -0.9425   22.1741 C   0  0  0  0  0  0  0  0  0  0  0  0
   12.4369    0.0245   23.1170 C   0  0  0  0  0  0  0  0  0  0  0  0
   11.5059    0.3276   24.0920 C   0  0  0  0  0  0  0  0  0  0  0  0
   10.2769   -0.3154   24.1060 C   0  0  0  0  0  0  0  0  0  0  0  0
    8.6048   -3.3954   23.4381 C   0  0  1  0  0  0  0  0  0  0  0  0
    8.9528   -3.7073   24.8801 C   0  0  1  0  0  0  0  0  0  0  0  0
    8.8567   -5.1453   25.1312 N   0  0  1  0  0  0  0  0  0  0  0  0
    9.7697   -5.5513   26.1982 C   0  0  1  0  0  0  0  0  0  0  0  0
    7.4409   -0.4634   21.5110 N   0  0  0  0  0  0  0  0  0  0  0  0
    7.0459    0.1256   20.2860 C   0  0  0  0  0  0  0  0  0  0  0  0
    7.4819   -0.2365   19.0100 C   0  0  0  0  0  0  0  0  0  0  0  0
    6.9179    0.2115   17.8830 N   0  0  0  0  0  0  0  0  0  0  0  0
    5.8710    1.0366   18.0030 C   0  0  0  0  0  0  0  0  0  0  0  0
    5.3630    1.4506   19.2180 C   0  0  0  0  0  0  0  0  0  0  0  0
    5.9669    0.9966   20.3740 C   0  0  0  0  0  0  0  0  0  0  0  0
    7.9438   -1.3903   23.8486 H   0  0  0  0  0  0  0  0  0  0  0  0
   10.7063   -2.3465   21.4513 H   0  0  0  0  0  0  0  0  0  0  0  0
   12.8827   -1.1969   21.4227 H   0  0  0  0  0  0  0  0  0  0  0  0
   13.3847    0.5416   23.0926 H   0  0  0  0  0  0  0  0  0  0  0  0
   11.7357    1.0669   24.8450 H   0  0  0  0  0  0  0  0  0  0  0  0
    9.5552   -0.0712   24.8714 H   0  0  0  0  0  0  0  0  0  0  0  0
    7.6107   -3.8154   23.2253 H   0  0  0  0  0  0  0  0  0  0  0  0
    9.3527   -3.8776   22.7915 H   0  0  0  0  0  0  0  0  0  0  0  0
    9.9801   -3.3720   25.0852 H   0  0  0  0  0  0  0  0  0  0  0  0
    8.2544   -3.1766   25.5439 H   0  0  0  0  0  0  0  0  0  0  0  0
    7.9197   -5.3689   25.3995 H   0  0  0  0  0  0  0  0  0  0  0  0
    9.0908   -5.6401   24.2943 H   0  0  0  0  0  0  0  0  0  0  0  0
    9.6785   -6.6344   26.3672 H   0  0  0  0  0  0  0  0  0  0  0  0
   10.8031   -5.3116   25.9074 H   0  0  0  0  0  0  0  0  0  0  0  0
    9.5148   -5.0133   27.1232 H   0  0  0  0  0  0  0  0  0  0  0  0
    7.3313    0.1085   22.3239 H   0  0  0  0  0  0  0  0  0  0  0  0
    8.3189   -0.9142   18.9288 H   0  0  0  0  0  0  0  0  0  0  0  0
    5.3985    1.3975   17.1014 H   0  0  0  0  0  0  0  0  0  0  0  0
    4.5124    2.1146   19.2635 H   0  0  0  0  0  0  0  0  0  0  0  0
    5.6033    1.3163   21.3394 H   0  0  0  0  0  0  0  0  0  0  0  0
  1  2  2  0
  2  3  1  0
  2 14  1  0
  3  4  1  0
  3 10  1  0
  3 21  1  1
  4  5  2  0
  4  9  1  0
  5  6  1  0
  5 22  1  0
  6  7  2  0
  6 23  1  0
  7  8  1  0
  7 24  1  0
  8  9  2  0
  8 25  1  0
  9 26  1  0
 10 11  1  0
 10 27  1  6
 10 28  1  0
 11 12  1  0
 11 29  1  1
 11 30  1  0
 12 13  1  0
 12 31  1  1
 12 32  1  0
 13 33  1  1
 13 34  1  0
 13 35  1  0
 14 15  1  0
 14 36  1  0
 15 16  2  0
 15 20  1  0
 16 17  1  0
 16 37  1  0
 17 18  2  0
 18 19  1  0
 18 38  1  0
 19 20  2  0
 19 39  1  0
 20 40  1  0
M  CHG  1  12   1
M  END
$$$$
