LIG(A-305)
     RDKit          3D

 36 38  0  0  1  0  0  0  0  0999 V2000
    9.5297   -0.5616   21.8793 N   0  0  0  0  0  0  0  0  0  0  0  0
   12.2503    4.3921   21.8037 N   0  0  0  0  0  0  0  0  0  0  0  0
    4.8566    1.5648   19.0077 N   0  0  0  0  0  0  0  0  0  0  0  0
   11.8297   -1.2168   22.1971 C   0  0  0  0  0  0  0  0  0  0  0  0
   12.0973    3.7582   23.1108 C   0  0  1  0  0  0  0  0  0  0  0  0
   12.9632    2.6191   23.3047 O   0  0  0  0  0  0  0  0  0  0  0  0
    5.4267    0.8408   19.9787 C   0  0  0  0  0  0  0  0  0  0  0  0
   10.8538   -0.2257   22.2492 C   0  0  0  0  0  0  0  0  0  0  0  0
    7.0284    0.0095   18.4856 C   0  0  0  0  0  0  0  0  0  0  0  0
    6.5245    0.0196   19.7746 C   0  0  0  0  0  0  0  0  0  0  0  0
    7.3176   -0.5374   20.9346 C   0  0  1  0  0  0  0  0  0  0  0  0
   12.5190    1.3691   22.9269 C   0  0  0  0  0  0  0  0  0  0  0  0
   12.8235    5.5071   22.2936 C   0  0  0  0  0  0  0  0  0  0  0  0
   11.1960    1.0703   22.6250 C   0  0  0  0  0  0  0  0  0  0  0  0
   14.0696   -1.8441   22.4699 F   0  0  0  0  0  0  0  0  0  0  0  0
   12.8135    4.9692   23.7186 C   0  0  1  0  0  0  0  0  0  0  0  0
   13.5069    0.3980   22.8698 C   0  0  0  0  0  0  0  0  0  0  0  0
   13.1227   -0.8700   22.5030 C   0  0  0  0  0  0  0  0  0  0  0  0
    6.4924    0.7125   17.4826 N   0  0  0  0  0  0  0  0  0  0  0  0
    8.7898    1.3634   20.8953 O   0  0  0  0  0  0  0  0  0  0  0  0
   13.2025    6.5420   21.7464 O   0  0  0  0  0  0  0  0  0  0  0  0
    5.4215    1.4466   17.8036 C   0  0  0  0  0  0  0  0  0  0  0  0
    8.6117    0.1945   21.2314 C   0  0  0  0  0  0  0  0  0  0  0  0
    9.2313   -1.4823   22.1306 H   0  0  0  0  0  0  0  0  0  0  0  0
   12.0137    4.1016   20.8765 H   0  0  0  0  0  0  0  0  0  0  0  0
   11.5769   -2.2306   21.9238 H   0  0  0  0  0  0  0  0  0  0  0  0
   11.0600    3.6316   23.4541 H   0  0  0  0  0  0  0  0  0  0  0  0
    5.0093    0.8995   20.9730 H   0  0  0  0  0  0  0  0  0  0  0  0
    7.8982   -0.5967   18.2796 H   0  0  0  0  0  0  0  0  0  0  0  0
    6.6855   -0.4928   21.8337 H   0  0  0  0  0  0  0  0  0  0  0  0
    7.5617   -1.5861   20.7096 H   0  0  0  0  0  0  0  0  0  0  0  0
   10.4385    1.8380   22.6817 H   0  0  0  0  0  0  0  0  0  0  0  0
   12.2190    5.5538   24.4360 H   0  0  0  0  0  0  0  0  0  0  0  0
   13.8047    4.7607   24.1477 H   0  0  0  0  0  0  0  0  0  0  0  0
   14.5358    0.6281   23.1039 H   0  0  0  0  0  0  0  0  0  0  0  0
    4.9634    2.0052   17.0008 H   0  0  0  0  0  0  0  0  0  0  0  0
  1  8  1  0
  1 23  1  0
  1 24  1  0
  2  5  1  0
  2 13  1  0
  2 25  1  0
  3  7  2  0
  3 22  1  0
  4  8  2  0
  4 18  1  0
  4 26  1  0
  5  6  1  0
  5 16  1  0
  5 27  1  1
  6 12  1  0
  7 10  1  0
  7 28  1  0
  8 14  1  0
  9 10  2  0
  9 19  1  0
  9 29  1  0
 10 11  1  0
 11 23  1  0
 11 30  1  1
 11 31  1  0
 12 14  2  0
 12 17  1  0
 13 16  1  0
 13 21  2  0
 14 32  1  0
 15 18  1  0
 16 33  1  1
 16 34  1  0
 17 18  2  0
 17 35  1  0
 19 22  2  0
 20 23  2  0
 22 36  1  0
M  END
$$$$
