LIG(A-305)
     RDKit          3D

 37 39  0  0  0  0  0  0  0  0999 V2000
    9.0948    1.1566   21.2131 O   0  0  0  0  0  0  0  0  0  0  0  0
    8.8808    0.0386   21.6641 C   0  0  0  0  0  0  0  0  0  0  0  0
    7.9588   -0.9294   20.9292 C   0  0  1  0  0  0  0  0  0  0  0  0
    7.2437   -0.2684   19.8592 N   0  0  0  0  0  0  0  0  0  0  0  0
    6.0758    0.4337   19.9043 C   0  0  0  0  0  0  0  0  0  0  0  0
    5.2608    0.8757   20.9403 C   0  0  0  0  0  0  0  0  0  0  0  0
    4.1898    1.6957   20.6093 C   0  0  0  0  0  0  0  0  0  0  0  0
    3.9358    2.0427   19.2823 C   0  0  0  0  0  0  0  0  0  0  0  0
    4.7457    1.5837   18.2553 C   0  0  0  0  0  0  0  0  0  0  0  0
    5.8337    0.7756   18.5783 C   0  0  0  0  0  0  0  0  0  0  0  0
    6.8536    0.2746   17.8022 N   0  0  0  0  0  0  0  0  0  0  0  0
    7.6937   -0.3434   18.5812 N   0  0  0  0  0  0  0  0  0  0  0  0
    9.4259   -0.3763   22.8291 N   0  0  0  0  0  0  0  0  0  0  0  0
    8.9719   -1.5323   23.6002 C   0  0  1  0  0  0  0  0  0  0  0  0
   10.5909    0.3136   23.3720 C   0  0  1  0  0  0  0  0  0  0  0  0
   11.8039   -0.5844   23.3850 C   0  0  0  0  0  0  0  0  0  0  0  0
   12.2729   -1.1174   24.5850 C   0  0  0  0  0  0  0  0  0  0  0  0
   13.3059   -2.0364   24.5670 C   0  0  0  0  0  0  0  0  0  0  0  0
   13.8290   -2.7494   26.0770 Cl  0  0  0  0  0  0  0  0  0  0  0  0
   13.9128   -2.4234   23.3870 C   0  0  0  0  0  0  0  0  0  0  0  0
   13.4608   -1.8745   22.1920 C   0  0  0  0  0  0  0  0  0  0  0  0
   12.4138   -0.9644   22.1950 C   0  0  0  0  0  0  0  0  0  0  0  0
    8.5617   -1.7460   20.5056 H   0  0  0  0  0  0  0  0  0  0  0  0
    7.2316   -1.3429   21.6435 H   0  0  0  0  0  0  0  0  0  0  0  0
    5.4534    0.5921   21.9644 H   0  0  0  0  0  0  0  0  0  0  0  0
    3.5447    2.0701   21.3904 H   0  0  0  0  0  0  0  0  0  0  0  0
    3.0945    2.6793   19.0514 H   0  0  0  0  0  0  0  0  0  0  0  0
    4.5382    1.8463   17.2285 H   0  0  0  0  0  0  0  0  0  0  0  0
    9.5925   -1.6388   24.5022 H   0  0  0  0  0  0  0  0  0  0  0  0
    7.9214   -1.3880   23.8929 H   0  0  0  0  0  0  0  0  0  0  0  0
    9.0597   -2.4403   22.9855 H   0  0  0  0  0  0  0  0  0  0  0  0
   10.8055    1.1966   22.7521 H   0  0  0  0  0  0  0  0  0  0  0  0
   10.3707    0.6331   24.4014 H   0  0  0  0  0  0  0  0  0  0  0  0
   11.8320   -0.8141   25.5231 H   0  0  0  0  0  0  0  0  0  0  0  0
   14.7223   -3.1383   23.3929 H   0  0  0  0  0  0  0  0  0  0  0  0
   13.9259   -2.1573   21.2593 H   0  0  0  0  0  0  0  0  0  0  0  0
   12.0683   -0.5460   21.2612 H   0  0  0  0  0  0  0  0  0  0  0  0
  1  2  2  0
  2  3  1  0
  2 13  1  0
  3  4  1  0
  3 23  1  6
  3 24  1  0
  4  5  1  0
  4 12  1  0
  5  6  2  0
  5 10  1  0
  6  7  1  0
  6 25  1  0
  7  8  2  0
  7 26  1  0
  8  9  1  0
  8 27  1  0
  9 10  2  0
  9 28  1  0
 10 11  1  0
 11 12  2  0
 13 14  1  0
 13 15  1  0
 14 29  1  1
 14 30  1  0
 14 31  1  0
 15 16  1  0
 15 32  1  6
 15 33  1  0
 16 17  2  0
 16 22  1  0
 17 18  1  0
 17 34  1  0
 18 19  1  0
 18 20  2  0
 20 21  1  0
 20 35  1  0
 21 22  2  0
 21 36  1  0
 22 37  1  0
M  END
$$$$
