LIG(A-306)
     RDKit          3D

 34 36  0  0  0  0  0  0  0  0999 V2000
  -14.4162   -2.2107  -21.6419 Cl  0  0  0  0  0  0  0  0  0  0  0  0
  -13.0017   -1.5694  -22.4115 C   0  0  0  0  0  0  0  0  0  0  0  0
  -13.1250   -0.7015  -23.4775 C   0  0  0  0  0  0  0  0  0  0  0  0
  -14.3555   -0.2605  -23.8334 F   0  0  0  0  0  0  0  0  0  0  0  0
  -11.7460   -1.9617  -21.9925 C   0  0  0  0  0  0  0  0  0  0  0  0
  -10.6098   -1.4952  -22.6443 C   0  0  0  0  0  0  0  0  0  0  0  0
  -10.7682   -0.6551  -23.7403 C   0  0  0  0  0  0  0  0  0  0  0  0
  -12.0228   -0.2488  -24.1594 C   0  0  0  0  0  0  0  0  0  0  0  0
   -9.2349   -1.8341  -22.1162 C   0  0  1  0  0  0  0  0  0  0  0  0
   -8.7242   -0.7494  -21.1892 C   0  0  0  0  0  0  0  0  0  0  0  0
   -9.0396    0.4318  -21.3318 O   0  0  0  0  0  0  0  0  0  0  0  0
   -8.0099   -1.2026  -20.1456 N   0  0  0  0  0  0  0  0  0  0  0  0
   -6.9945   -0.5855  -19.3929 C   0  0  0  0  0  0  0  0  0  0  0  0
   -6.0851    0.3514  -19.9859 C   0  0  0  0  0  0  0  0  0  0  0  0
   -5.7957    0.4044  -21.3741 C   0  0  0  0  0  0  0  0  0  0  0  0
   -4.8294    1.2398  -21.8635 C   0  0  0  0  0  0  0  0  0  0  0  0
   -4.1084    2.0603  -21.0116 C   0  0  0  0  0  0  0  0  0  0  0  0
   -4.3487    2.0513  -19.6693 C   0  0  0  0  0  0  0  0  0  0  0  0
   -5.3370    1.1947  -19.1180 C   0  0  0  0  0  0  0  0  0  0  0  0
   -5.5496    1.0616  -17.7291 C   0  0  0  0  0  0  0  0  0  0  0  0
   -6.3759    0.1846  -17.1820 N   0  0  0  0  0  0  0  0  0  0  0  0
   -7.0558   -0.6170  -18.0049 C   0  0  0  0  0  0  0  0  0  0  0  0
  -11.6457   -2.6347  -21.1538 H   0  0  0  0  0  0  0  0  0  0  0  0
   -9.8948   -0.3127  -24.2755 H   0  0  0  0  0  0  0  0  0  0  0  0
  -12.1329    0.4118  -25.0066 H   0  0  0  0  0  0  0  0  0  0  0  0
   -9.2863   -2.7840  -21.5639 H   0  0  0  0  0  0  0  0  0  0  0  0
   -8.5406   -1.9394  -22.9630 H   0  0  0  0  0  0  0  0  0  0  0  0
   -8.2377   -2.1323  -19.8562 H   0  0  0  0  0  0  0  0  0  0  0  0
   -6.3479   -0.2255  -22.0558 H   0  0  0  0  0  0  0  0  0  0  0  0
   -4.6267    1.2598  -22.9241 H   0  0  0  0  0  0  0  0  0  0  0  0
   -3.3485    2.7135  -21.4145 H   0  0  0  0  0  0  0  0  0  0  0  0
   -3.7819    2.7019  -19.0199 H   0  0  0  0  0  0  0  0  0  0  0  0
   -5.0019    1.7184  -17.0696 H   0  0  0  0  0  0  0  0  0  0  0  0
   -7.7076   -1.3510  -17.5545 H   0  0  0  0  0  0  0  0  0  0  0  0
  1  2  1  0
  2  3  2  0
  2  5  1  0
  3  4  1  0
  3  8  1  0
  5  6  2  0
  5 23  1  0
  6  7  1  0
  6  9  1  0
  7  8  2  0
  7 24  1  0
  8 25  1  0
  9 10  1  0
  9 26  1  1
  9 27  1  0
 10 11  2  0
 10 12  1  0
 12 13  1  0
 12 28  1  0
 13 14  2  0
 13 22  1  0
 14 15  1  0
 14 19  1  0
 15 16  2  0
 15 29  1  0
 16 17  1  0
 16 30  1  0
 17 18  2  0
 17 31  1  0
 18 19  1  0
 18 32  1  0
 19 20  2  0
 20 21  1  0
 20 33  1  0
 21 22  2  0
 22 34  1  0
M  END
$$$$
