LIG(A-305)
     RDKit          3D

 27 28  0  0  1  0  0  0  0  0999 V2000
   23.6369   -8.0852    5.7578 C   0  0  0  0  0  0  0  0  0  0  0  0
   24.3869   -6.8072    6.1258 C   0  0  0  0  0  0  0  0  0  0  0  0
   25.7579   -6.7873    6.1357 C   0  0  0  0  0  0  0  0  0  0  0  0
   26.4949   -7.9843    5.7927 C   0  0  0  0  0  0  0  0  0  0  0  0
   25.7678   -9.2393    5.4348 C   0  0  0  0  0  0  0  0  0  0  0  0
   26.5678  -10.4873    5.0898 C   0  0  1  0  0  0  0  0  0  0  0  0
   27.9019  -10.5893    6.9418 C   0  0  0  0  0  0  0  0  0  0  0  0
   28.3679  -11.3722    8.1568 C   0  0  0  0  0  0  0  0  0  0  0  0
   27.4808  -13.3373    7.1169 C   0  0  1  0  0  0  0  0  0  0  0  0
   27.2728  -12.5053    5.8629 C   0  0  1  0  0  0  0  0  0  0  0  0
   24.3578   -9.2603    5.4229 C   0  0  0  0  0  0  0  0  0  0  0  0
   26.9158  -11.1743    6.1928 N   0  0  2  0  0  0  0  0  0  0  0  0
   28.3359  -12.7932    8.0338 O   0  0  0  0  0  0  0  0  0  0  0  0
   21.8519   -8.0632    5.7709 Cl  0  0  0  0  0  0  0  0  0  0  0  0
   23.8348   -5.9144    6.3795 H   0  0  0  0  0  0  0  0  0  0  0  0
   26.2853   -5.8821    6.3983 H   0  0  0  0  0  0  0  0  0  0  0  0
   27.5748   -7.9704    5.7955 H   0  0  0  0  0  0  0  0  0  0  0  0
   25.9571  -11.1353    4.4438 H   0  0  0  0  0  0  0  0  0  0  0  0
   27.4801  -10.1891    4.5526 H   0  0  0  0  0  0  0  0  0  0  0  0
   28.3228   -9.6287    6.6838 H   0  0  0  0  0  0  0  0  0  0  0  0
   28.7033  -10.8829    9.0593 H   0  0  0  0  0  0  0  0  0  0  0  0
   26.5029  -13.4751    7.6015 H   0  0  0  0  0  0  0  0  0  0  0  0
   27.8816  -14.3161    6.8148 H   0  0  0  0  0  0  0  0  0  0  0  0
   28.2051  -12.4941    5.2793 H   0  0  0  0  0  0  0  0  0  0  0  0
   26.4691  -12.9552    5.2614 H   0  0  0  0  0  0  0  0  0  0  0  0
   23.8301  -10.1652    5.1603 H   0  0  0  0  0  0  0  0  0  0  0  0
   26.1043  -11.2351    6.7740 H   0  0  0  0  0  0  0  0  0  0  0  0
  1  2  2  0
  1 11  1  0
  1 14  1  0
  2  3  1  0
  2 15  1  0
  3  4  2  0
  3 16  1  0
  4  5  1  0
  4 17  1  0
  5  6  1  0
  5 11  2  0
  6 12  1  0
  6 18  1  6
  6 19  1  0
  7  8  2  0
  7 12  1  0
  7 20  1  0
  8 13  1  0
  8 21  1  0
  9 10  1  0
  9 13  1  0
  9 22  1  1
  9 23  1  0
 10 12  1  0
 10 24  1  6
 10 25  1  0
 11 26  1  0
 12 27  1  1
M  CHG  1  12   1
M  END
$$$$
