LIG(A-305)
     RDKit          3D

 48 51  0  0  0  0  0  0  0  0999 V2000
    8.6717    1.0148   21.0233 O   0  0  0  0  0  0  0  0  0  0  0  0
    8.5836   -0.1892   21.2534 C   0  0  0  0  0  0  0  0  0  0  0  0
    7.4005   -1.0101   20.7775 C   0  0  1  0  0  0  0  0  0  0  0  0
    6.6255   -0.2461   19.7246 C   0  0  0  0  0  0  0  0  0  0  0  0
    5.5376    0.5890   20.0886 C   0  0  0  0  0  0  0  0  0  0  0  0
    5.1077    0.7691   21.4287 C   0  0  0  0  0  0  0  0  0  0  0  0
    4.0688    1.6001   21.7278 C   0  0  0  0  0  0  0  0  0  0  0  0
    3.4038    2.2862   20.7258 C   0  0  0  0  0  0  0  0  0  0  0  0
    3.7796    2.1501   19.4218 C   0  0  0  0  0  0  0  0  0  0  0  0
    4.8565    1.3020   19.0687 C   0  0  0  0  0  0  0  0  0  0  0  0
    5.3154    1.1369   17.7416 C   0  0  0  0  0  0  0  0  0  0  0  0
    6.3383    0.3638   17.4046 N   0  0  0  0  0  0  0  0  0  0  0  0
    6.9583   -0.3062   18.3855 C   0  0  0  0  0  0  0  0  0  0  0  0
    9.5067   -0.8942   21.9393 N   0  0  0  0  0  0  0  0  0  0  0  0
   10.6778   -0.4013   22.5581 C   0  0  0  0  0  0  0  0  0  0  0  0
   11.7917   -1.2253   22.6771 C   0  0  0  0  0  0  0  0  0  0  0  0
   12.9248   -0.7274   23.2909 C   0  0  0  0  0  0  0  0  0  0  0  0
   14.2728   -1.7915   23.5538 Cl  0  0  0  0  0  0  0  0  0  0  0  0
   12.9970    0.5666   23.7629 C   0  0  0  0  0  0  0  0  0  0  0  0
   10.7189    0.9027   23.0401 C   0  0  0  0  0  0  0  0  0  0  0  0
   11.8760    1.3727   23.6350 C   0  0  0  0  0  0  0  0  0  0  0  0
   11.8481    2.6507   24.1879 O   0  0  0  0  0  0  0  0  0  0  0  0
   12.4851    3.7057   23.6028 C   0  0  0  0  0  0  0  0  0  0  0  0
   13.0710    3.4976   22.3527 C   0  0  0  0  0  0  0  0  0  0  0  0
   13.7330    4.5715   21.7796 C   0  0  0  0  0  0  0  0  0  0  0  0
   13.7832    5.7875   22.4376 C   0  0  0  0  0  0  0  0  0  0  0  0
   12.5143    4.8547   24.2698 N   0  0  0  0  0  0  0  0  0  0  0  0
   13.1493    5.8686   23.6826 C   0  0  0  0  0  0  0  0  0  0  0  0
   13.2134    7.0746   24.2896 O   0  0  0  0  0  0  0  0  0  0  0  0
   12.5946    7.2197   25.5787 C   0  0  1  0  0  0  0  0  0  0  0  0
    7.7632   -1.9555   20.3476 H   0  0  0  0  0  0  0  0  0  0  0  0
    6.7402   -1.2248   21.6307 H   0  0  0  0  0  0  0  0  0  0  0  0
    5.6111    0.2398   22.2241 H   0  0  0  0  0  0  0  0  0  0  0  0
    3.7619    1.7244   22.7558 H   0  0  0  0  0  0  0  0  0  0  0  0
    2.5789    2.9356   20.9794 H   0  0  0  0  0  0  0  0  0  0  0  0
    3.2514    2.6937   18.6525 H   0  0  0  0  0  0  0  0  0  0  0  0
    4.8024    1.6721   16.9563 H   0  0  0  0  0  0  0  0  0  0  0  0
    7.7842   -0.9439   18.1069 H   0  0  0  0  0  0  0  0  0  0  0  0
    9.3438   -1.8776   22.0189 H   0  0  0  0  0  0  0  0  0  0  0  0
   11.7714   -2.2359   22.2966 H   0  0  0  0  0  0  0  0  0  0  0  0
   13.9011    0.9415   24.2193 H   0  0  0  0  0  0  0  0  0  0  0  0
    9.8541    1.5435   22.9506 H   0  0  0  0  0  0  0  0  0  0  0  0
   13.0109    2.5413   21.8543 H   0  0  0  0  0  0  0  0  0  0  0  0
   14.2107    4.4591   20.8176 H   0  0  0  0  0  0  0  0  0  0  0  0
   14.2904    6.6389   22.0082 H   0  0  0  0  0  0  0  0  0  0  0  0
   12.7316    8.2503   25.9378 H   0  0  0  0  0  0  0  0  0  0  0  0
   11.5199    7.0002   25.4961 H   0  0  0  0  0  0  0  0  0  0  0  0
   13.0584    6.5193   26.2888 H   0  0  0  0  0  0  0  0  0  0  0  0
  1  2  2  0
  2  3  1  0
  2 14  1  0
  3  4  1  0
  3 31  1  6
  3 32  1  0
  4  5  2  0
  4 13  1  0
  5  6  1  0
  5 10  1  0
  6  7  2  0
  6 33  1  0
  7  8  1  0
  7 34  1  0
  8  9  2  0
  8 35  1  0
  9 10  1  0
  9 36  1  0
 10 11  2  0
 11 12  1  0
 11 37  1  0
 12 13  2  0
 13 38  1  0
 14 15  1  0
 14 39  1  0
 15 16  2  0
 15 20  1  0
 16 17  1  0
 16 40  1  0
 17 18  1  0
 17 19  2  0
 19 21  1  0
 19 41  1  0
 20 21  2  0
 20 42  1  0
 21 22  1  0
 22 23  1  0
 23 24  2  0
 23 27  1  0
 24 25  1  0
 24 43  1  0
 25 26  2  0
 25 44  1  0
 26 28  1  0
 26 45  1  0
 27 28  2  0
 28 29  1  0
 29 30  1  0
 30 46  1  1
 30 47  1  0
 30 48  1  0
M  END
$$$$
