LIG(A-305)
     RDKit          3D

 41 44  0  0  1  0  0  0  0  0999 V2000
    8.8589    1.0732   20.9957 O   0  0  0  0  0  0  0  0  0  0  0  0
    8.2870    0.1762   21.5948 C   0  0  0  0  0  0  0  0  0  0  0  0
    8.6773   -0.1708   23.0237 C   0  0  2  0  0  0  0  0  0  0  0  0
   10.1763   -0.3871   23.1244 C   0  0  0  0  0  0  0  0  0  0  0  0
   10.9016    0.1718   24.1682 C   0  0  0  0  0  0  0  0  0  0  0  0
   12.2486   -0.0934   24.3209 C   0  0  0  0  0  0  0  0  0  0  0  0
   10.8409   -1.1931   22.2102 C   0  0  0  0  0  0  0  0  0  0  0  0
   12.1869   -1.4763   22.3549 C   0  0  0  0  0  0  0  0  0  0  0  0
   12.8702   -0.9414   23.4257 C   0  0  0  0  0  0  0  0  0  0  0  0
   14.5113   -1.4427   23.7263 Cl  0  0  0  0  0  0  0  0  0  0  0  0
    7.2487   -0.5196   21.0341 N   0  0  0  0  0  0  0  0  0  0  0  0
    6.6027   -1.7215   21.6042 C   0  0  1  0  0  0  0  0  0  0  0  0
    7.4389   -2.3527   22.6950 C   0  0  1  0  0  0  0  0  0  0  0  0
    7.8703   -1.2987   23.7059 C   0  0  2  0  0  0  0  0  0  0  0  0
    6.5096    0.0645   19.9573 C   0  0  0  0  0  0  0  0  0  0  0  0
    5.3797    0.8997   20.2085 C   0  0  0  0  0  0  0  0  0  0  0  0
    4.9171    1.2507   21.5057 C   0  0  0  0  0  0  0  0  0  0  0  0
    3.8282    2.0578   21.6689 C   0  0  0  0  0  0  0  0  0  0  0  0
    3.1461    2.5570   20.5721 C   0  0  0  0  0  0  0  0  0  0  0  0
    3.5567    2.2629   19.3060 C   0  0  0  0  0  0  0  0  0  0  0  0
    4.6835    1.4318   19.0877 C   0  0  0  0  0  0  0  0  0  0  0  0
    5.1732    1.1177   17.7996 C   0  0  0  0  0  0  0  0  0  0  0  0
    6.2330    0.3576   17.5713 N   0  0  0  0  0  0  0  0  0  0  0  0
    6.8672   -0.1535   18.6332 C   0  0  0  0  0  0  0  0  0  0  0  0
    8.4687    0.7334   23.6144 H   0  0  0  0  0  0  0  0  0  0  0  0
   10.4049    0.8239   24.8715 H   0  0  0  0  0  0  0  0  0  0  0  0
   12.8073    0.3559   25.1285 H   0  0  0  0  0  0  0  0  0  0  0  0
   10.2982   -1.6057   21.3725 H   0  0  0  0  0  0  0  0  0  0  0  0
   12.6947   -2.1068   21.6399 H   0  0  0  0  0  0  0  0  0  0  0  0
    5.6280   -1.4344   22.0255 H   0  0  0  0  0  0  0  0  0  0  0  0
    6.4523   -2.4582   20.8012 H   0  0  0  0  0  0  0  0  0  0  0  0
    6.8454   -3.1248   23.2064 H   0  0  0  0  0  0  0  0  0  0  0  0
    8.3319   -2.8132   22.2473 H   0  0  0  0  0  0  0  0  0  0  0  0
    6.9757   -0.8658   24.1774 H   0  0  0  0  0  0  0  0  0  0  0  0
    8.4967   -1.7739   24.4752 H   0  0  0  0  0  0  0  0  0  0  0  0
    5.4347    0.8733   22.3752 H   0  0  0  0  0  0  0  0  0  0  0  0
    3.4951    2.3100   22.6648 H   0  0  0  0  0  0  0  0  0  0  0  0
    2.2804    3.1852   20.7212 H   0  0  0  0  0  0  0  0  0  0  0  0
    3.0184    2.6671   18.4614 H   0  0  0  0  0  0  0  0  0  0  0  0
    4.6493    1.5238   16.9469 H   0  0  0  0  0  0  0  0  0  0  0  0
    7.7235   -0.7844   18.4459 H   0  0  0  0  0  0  0  0  0  0  0  0
  1  2  2  0
  2  3  1  0
  2 11  1  0
  3  4  1  0
  3 14  1  0
  3 25  1  1
  4  5  2  0
  4  7  1  0
  5  6  1  0
  5 26  1  0
  6  9  2  0
  6 27  1  0
  7  8  2  0
  7 28  1  0
  8  9  1  0
  8 29  1  0
  9 10  1  0
 11 12  1  0
 11 15  1  0
 12 13  1  0
 12 30  1  1
 12 31  1  0
 13 14  1  0
 13 32  1  1
 13 33  1  0
 14 34  1  1
 14 35  1  0
 15 16  2  0
 15 24  1  0
 16 17  1  0
 16 21  1  0
 17 18  2  0
 17 36  1  0
 18 19  1  0
 18 37  1  0
 19 20  2  0
 19 38  1  0
 20 21  1  0
 20 39  1  0
 21 22  2  0
 22 23  1  0
 22 40  1  0
 23 24  2  0
 24 41  1  0
M  END
$$$$
