LIG(A-306)
     RDKit          3D

 47 50  0  0  1  0  0  0  0  0999 V2000
  -14.2609   -2.1223  -20.7852 Cl  0  0  0  0  0  0  0  0  0  0  0  0
  -13.4217   -1.1497  -21.9640 C   0  0  0  0  0  0  0  0  0  0  0  0
  -14.1498   -0.3158  -22.7890 C   0  0  0  0  0  0  0  0  0  0  0  0
  -13.4811    0.5041  -23.6798 C   0  0  0  0  0  0  0  0  0  0  0  0
  -12.0955    0.4801  -23.7223 C   0  0  0  0  0  0  0  0  0  0  0  0
  -11.5057    1.3135  -24.6405 O   0  0  0  0  0  0  0  0  0  0  0  0
  -10.2401    0.8290  -25.1380 C   0  0  1  0  0  0  0  0  0  0  0  0
   -9.2536    0.6253  -24.0160 C   0  0  1  0  0  0  0  0  0  0  0  0
  -12.0424   -1.1920  -22.0092 C   0  0  0  0  0  0  0  0  0  0  0  0
  -11.3521   -0.3570  -22.8855 C   0  0  0  0  0  0  0  0  0  0  0  0
   -9.8357   -0.3301  -22.9507 C   0  0  2  0  0  0  0  0  0  0  0  0
   -9.2665    0.0049  -21.5726 C   0  0  0  0  0  0  0  0  0  0  0  0
   -9.6118    0.9962  -20.9658 O   0  0  0  0  0  0  0  0  0  0  0  0
   -8.2870   -0.8451  -21.0205 N   0  0  0  0  0  0  0  0  0  0  0  0
   -8.1972   -2.2279  -21.2967 C   0  0  0  0  0  0  0  0  0  0  0  0
   -9.1058   -2.8061  -21.8829 O   0  0  0  0  0  0  0  0  0  0  0  0
   -7.0341   -2.9988  -20.7034 C   0  0  1  0  0  0  0  0  0  0  0  0
   -7.3997   -4.4272  -20.3530 C   0  0  1  0  0  0  0  0  0  0  0  0
   -7.4359   -0.2861  -19.9902 C   0  0  0  0  0  0  0  0  0  0  0  0
   -7.7488   -0.4069  -18.6388 C   0  0  0  0  0  0  0  0  0  0  0  0
   -7.0158    0.1158  -17.6463 N   0  0  0  0  0  0  0  0  0  0  0  0
   -5.9293    0.8043  -17.9797 C   0  0  0  0  0  0  0  0  0  0  0  0
   -5.5032    1.0300  -19.3145 C   0  0  0  0  0  0  0  0  0  0  0  0
   -6.2771    0.4596  -20.3655 C   0  0  0  0  0  0  0  0  0  0  0  0
   -4.3608    1.8029  -19.6431 C   0  0  0  0  0  0  0  0  0  0  0  0
   -3.9990    1.9925  -20.9474 C   0  0  0  0  0  0  0  0  0  0  0  0
   -4.7461    1.4356  -21.9761 C   0  0  0  0  0  0  0  0  0  0  0  0
   -5.8560    0.6850  -21.7033 C   0  0  0  0  0  0  0  0  0  0  0  0
  -15.2286   -0.3039  -22.7393 H   0  0  0  0  0  0  0  0  0  0  0  0
  -14.0342    1.1584  -24.3374 H   0  0  0  0  0  0  0  0  0  0  0  0
  -10.4005   -0.1298  -25.6529 H   0  0  0  0  0  0  0  0  0  0  0  0
   -9.8295    1.5621  -25.8478 H   0  0  0  0  0  0  0  0  0  0  0  0
   -8.3273    0.1932  -24.4224 H   0  0  0  0  0  0  0  0  0  0  0  0
   -9.0312    1.5961  -23.5489 H   0  0  0  0  0  0  0  0  0  0  0  0
  -11.5002   -1.8704  -21.3671 H   0  0  0  0  0  0  0  0  0  0  0  0
   -9.4984   -1.3454  -23.2067 H   0  0  0  0  0  0  0  0  0  0  0  0
   -6.2124   -3.0147  -21.4345 H   0  0  0  0  0  0  0  0  0  0  0  0
   -6.7014   -2.4858  -19.7890 H   0  0  0  0  0  0  0  0  0  0  0  0
   -6.5224   -4.9371  -19.9284 H   0  0  0  0  0  0  0  0  0  0  0  0
   -8.2158   -4.4263  -19.6154 H   0  0  0  0  0  0  0  0  0  0  0  0
   -7.7268   -4.9551  -21.2609 H   0  0  0  0  0  0  0  0  0  0  0  0
   -8.6395   -0.9571  -18.3735 H   0  0  0  0  0  0  0  0  0  0  0  0
   -5.3310    1.2196  -17.1822 H   0  0  0  0  0  0  0  0  0  0  0  0
   -3.7706    2.2462  -18.8548 H   0  0  0  0  0  0  0  0  0  0  0  0
   -3.1237    2.5811  -21.1798 H   0  0  0  0  0  0  0  0  0  0  0  0
   -4.4480    1.5967  -23.0015 H   0  0  0  0  0  0  0  0  0  0  0  0
   -6.4213    0.2568  -22.5178 H   0  0  0  0  0  0  0  0  0  0  0  0
  1  2  1  0
  2  3  2  0
  2  9  1  0
  3  4  1  0
  3 29  1  0
  4  5  2  0
  4 30  1  0
  5  6  1  0
  5 10  1  0
  6  7  1  0
  7  8  1  0
  7 31  1  6
  7 32  1  0
  8 11  1  0
  8 33  1  6
  8 34  1  0
  9 10  2  0
  9 35  1  0
 10 11  1  0
 11 12  1  0
 11 36  1  6
 12 13  2  0
 12 14  1  0
 14 15  1  0
 14 19  1  0
 15 16  2  0
 15 17  1  0
 17 18  1  0
 17 37  1  6
 17 38  1  0
 18 39  1  1
 18 40  1  0
 18 41  1  0
 19 20  2  0
 19 24  1  0
 20 21  1  0
 20 42  1  0
 21 22  2  0
 22 23  1  0
 22 43  1  0
 23 24  2  0
 23 25  1  0
 24 28  1  0
 25 26  2  0
 25 44  1  0
 26 27  1  0
 26 45  1  0
 27 28  2  0
 27 46  1  0
 28 47  1  0
M  END
$$$$
