LIG(A-307)
     RDKit          3D

 53 57  0  0  0  0  0  0  0  0999 V2000
    7.2476   -3.9700   23.4794 C   0  0  0  0  0  0  0  0  0  0  0  0
    7.0977   -0.2463   18.9090 C   0  0  0  0  0  0  0  0  0  0  0  0
    5.1412    0.9774   18.2197 C   0  0  0  0  0  0  0  0  0  0  0  0
    7.4524   -0.9086   21.2298 N   0  0  0  0  0  0  0  0  0  0  0  0
    6.6230   -0.2346   20.2282 C   0  0  0  0  0  0  0  0  0  0  0  0
   11.9489   -1.4609   23.0277 C   0  0  0  0  0  0  0  0  0  0  0  0
   13.2389   -1.0397   23.3614 C   0  0  0  0  0  0  0  0  0  0  0  0
   13.5307    0.3134   23.4926 C   0  0  0  0  0  0  0  0  0  0  0  0
   12.5344    1.2662   23.2670 C   0  0  0  0  0  0  0  0  0  0  0  0
   11.9299    3.5961   23.1135 C   0  0  1  0  0  0  0  0  0  0  0  0
   12.5667    4.9481   23.5275 C   0  0  1  0  0  0  0  0  0  0  0  0
   11.2324    0.8660   22.9292 C   0  0  0  0  0  0  0  0  0  0  0  0
    6.9398   -2.0578   21.8318 C   0  0  0  0  0  0  0  0  0  0  0  0
    6.0750   -6.1013   23.5723 C   0  0  0  0  0  0  0  0  0  0  0  0
    6.3254   -6.1734   24.9483 C   0  0  0  0  0  0  0  0  0  0  0  0
   10.9437   -0.5101   22.8151 C   0  0  0  0  0  0  0  0  0  0  0  0
    9.5297   -1.0343   22.4513 C   0  0  0  0  0  0  0  0  0  0  0  0
    7.0293   -5.1494   25.5933 C   0  0  0  0  0  0  0  0  0  0  0  0
    7.4859   -4.0522   24.8593 C   0  0  0  0  0  0  0  0  0  0  0  0
    9.0431   -2.1885   23.0753 C   0  0  0  0  0  0  0  0  0  0  0  0
    8.7153   -0.3934   21.5216 C   0  0  0  0  0  0  0  0  0  0  0  0
    6.5266   -4.9980   22.8364 C   0  0  0  0  0  0  0  0  0  0  0  0
    6.2193   -4.9759   21.3355 C   0  0  0  0  0  0  0  0  0  0  0  0
   14.0876    5.0425   23.2842 C   0  0  1  0  0  0  0  0  0  0  0  0
   13.0932    5.8294   22.4016 C   0  0  1  0  0  0  0  0  0  0  0  0
    4.6795    0.9871   19.5418 C   0  0  0  0  0  0  0  0  0  0  0  0
    5.4139    0.3721   20.5605 C   0  0  0  0  0  0  0  0  0  0  0  0
    7.7741   -2.7008   22.7545 C   0  0  0  0  0  0  0  0  0  0  0  0
    6.3543    0.3637   17.8973 N   0  0  0  0  0  0  0  0  0  0  0  0
    5.9860   -4.9717   20.2155 N   0  0  0  0  0  0  0  0  0  0  0  0
    9.1369    0.7708   20.8807 O   0  0  0  0  0  0  0  0  0  0  0  0
   12.9041    2.6182   23.4071 O   0  0  0  0  0  0  0  0  0  0  0  0
   14.5462   -2.2075   23.6599 Cl  0  0  0  0  0  0  0  0  0  0  0  0
    8.0367   -0.7264   18.6761 H   0  0  0  0  0  0  0  0  0  0  0  0
    4.5554    1.4477   17.4438 H   0  0  0  0  0  0  0  0  0  0  0  0
   11.7287   -2.5140   22.9342 H   0  0  0  0  0  0  0  0  0  0  0  0
   14.5265    0.6273   23.7686 H   0  0  0  0  0  0  0  0  0  0  0  0
   11.0118    3.4102   23.6903 H   0  0  0  0  0  0  0  0  0  0  0  0
   11.6944    3.5945   22.0389 H   0  0  0  0  0  0  0  0  0  0  0  0
   12.1637    5.4435   24.4232 H   0  0  0  0  0  0  0  0  0  0  0  0
   10.4610    1.6024   22.7588 H   0  0  0  0  0  0  0  0  0  0  0  0
    5.9535   -2.4312   21.5990 H   0  0  0  0  0  0  0  0  0  0  0  0
    5.5343   -6.8954   23.0790 H   0  0  0  0  0  0  0  0  0  0  0  0
    5.9737   -7.0231   25.5146 H   0  0  0  0  0  0  0  0  0  0  0  0
    7.2187   -5.2076   26.6549 H   0  0  0  0  0  0  0  0  0  0  0  0
    8.0265   -3.2612   25.3579 H   0  0  0  0  0  0  0  0  0  0  0  0
    9.6504   -2.6922   23.8127 H   0  0  0  0  0  0  0  0  0  0  0  0
   14.7298    5.5742   24.0016 H   0  0  0  0  0  0  0  0  0  0  0  0
   14.6349    4.1835   22.8687 H   0  0  0  0  0  0  0  0  0  0  0  0
   12.9362    5.5337   21.3537 H   0  0  0  0  0  0  0  0  0  0  0  0
   13.0312    6.9244   22.4866 H   0  0  0  0  0  0  0  0  0  0  0  0
    3.7454    1.4752   19.7773 H   0  0  0  0  0  0  0  0  0  0  0  0
    5.0532    0.3675   21.5785 H   0  0  0  0  0  0  0  0  0  0  0  0
  1 19  1  0
  1 22  2  0
  1 28  1  0
  2  5  2  0
  2 29  1  0
  2 34  1  0
  3 26  1  0
  3 29  2  0
  3 35  1  0
  4  5  1  0
  4 13  1  0
  4 21  1  0
  5 27  1  0
  6  7  2  0
  6 16  1  0
  6 36  1  0
  7  8  1  0
  7 33  1  0
  8  9  2  0
  8 37  1  0
  9 12  1  0
  9 32  1  0
 10 11  1  0
 10 32  1  0
 10 38  1  1
 10 39  1  0
 11 24  1  0
 11 25  1  0
 11 40  1  1
 12 16  2  0
 12 41  1  0
 13 28  2  0
 13 42  1  0
 14 15  2  0
 14 22  1  0
 14 43  1  0
 15 18  1  0
 15 44  1  0
 16 17  1  0
 17 20  2  0
 17 21  1  0
 18 19  2  0
 18 45  1  0
 19 46  1  0
 20 28  1  0
 20 47  1  0
 21 31  2  0
 22 23  1  0
 23 30  3  0
 24 25  1  0
 24 48  1  1
 24 49  1  0
 25 50  1  6
 25 51  1  0
 26 27  2  0
 26 52  1  0
 27 53  1  0
M  END
$$$$
