LIG(A-306)
     RDKit          3D

 58 63  0  0  1  0  0  0  0  0999 V2000
    8.9276    7.2009   22.5360 N   0  0  0  0  0  0  0  0  0  0  0  0
    8.3757    6.2109   22.6360 C   0  0  0  0  0  0  0  0  0  0  0  0
    7.6129    4.9588   22.7350 C   0  0  2  0  0  0  0  0  0  0  0  0
    6.3919    4.8646   21.8550 C   0  0  1  0  0  0  0  0  0  0  0  0
    6.2219    5.0706   23.3080 C   0  0  2  0  0  0  0  0  0  0  0  0
    8.4451    3.7049   22.9820 C   0  0  1  0  0  0  0  0  0  0  0  0
    8.6412    3.0619   24.6329 S   0  0  1  0  0  0  0  0  0  0  0  0
    9.4401    3.9800   25.3800 O   0  0  0  0  0  0  0  0  0  0  0  0
    7.3562    2.6897   25.1369 O   0  0  0  0  0  0  0  0  0  0  0  0
    9.5034    1.6930   24.4709 N   0  0  0  0  0  0  0  0  0  0  0  0
   10.9244    1.6542   24.8339 C   0  0  1  0  0  0  0  0  0  0  0  0
    8.9166    0.3529   24.2909 C   0  0  1  0  0  0  0  0  0  0  0  0
    9.5857   -0.3280   23.0689 C   0  0  2  0  0  0  0  0  0  0  0  0
   11.1116   -0.2008   23.0959 C   0  0  0  0  0  0  0  0  0  0  0  0
   11.7035    0.8423   23.8249 C   0  0  0  0  0  0  0  0  0  0  0  0
   13.0585    1.1045   23.6539 C   0  0  0  0  0  0  0  0  0  0  0  0
   13.8296    0.3406   22.7999 C   0  0  0  0  0  0  0  0  0  0  0  0
   11.9058   -1.0146   22.2859 C   0  0  0  0  0  0  0  0  0  0  0  0
   13.2467   -0.7124   22.1389 C   0  0  0  0  0  0  0  0  0  0  0  0
   14.2048   -1.6503   21.0299 Cl  0  0  0  0  0  0  0  0  0  0  0  0
    9.0426    0.3730   21.8219 C   0  0  0  0  0  0  0  0  0  0  0  0
    9.5044    1.3710   21.3029 O   0  0  0  0  0  0  0  0  0  0  0  0
    7.9507   -0.3192   21.3879 N   0  0  0  0  0  0  0  0  0  0  0  0
    7.7438   -1.5712   22.1329 C   0  0  1  0  0  0  0  0  0  0  0  0
    9.0629   -1.7680   22.8769 C   0  0  2  0  0  0  0  0  0  0  0  0
    7.0856    0.0737   20.3119 C   0  0  0  0  0  0  0  0  0  0  0  0
    5.9335    0.8996   20.5099 C   0  0  0  0  0  0  0  0  0  0  0  0
    5.4284    1.2685   21.7839 C   0  0  0  0  0  0  0  0  0  0  0  0
    4.3133    2.0473   21.9000 C   0  0  0  0  0  0  0  0  0  0  0  0
    3.6593    2.5222   20.7700 C   0  0  0  0  0  0  0  0  0  0  0  0
    4.1013    2.1913   19.5220 C   0  0  0  0  0  0  0  0  0  0  0  0
    5.2364    1.3595   19.3549 C   0  0  0  0  0  0  0  0  0  0  0  0
    5.7055    0.9376   18.0879 C   0  0  0  0  0  0  0  0  0  0  0  0
    6.7466    0.1387   17.9079 N   0  0  0  0  0  0  0  0  0  0  0  0
    7.4046   -0.2702   19.0019 C   0  0  0  0  0  0  0  0  0  0  0  0
    6.1569    5.6797   21.1547 H   0  0  0  0  0  0  0  0  0  0  0  0
    6.1158    3.9010   21.4020 H   0  0  0  0  0  0  0  0  0  0  0  0
    5.8609    6.0385   23.6859 H   0  0  0  0  0  0  0  0  0  0  0  0
    5.8198    4.2598   23.9332 H   0  0  0  0  0  0  0  0  0  0  0  0
    7.9912    2.9019   22.3826 H   0  0  0  0  0  0  0  0  0  0  0  0
    9.4561    3.9177   22.6042 H   0  0  0  0  0  0  0  0  0  0  0  0
   11.3206    2.6801   24.8575 H   0  0  0  0  0  0  0  0  0  0  0  0
   11.0322    1.1966   25.8284 H   0  0  0  0  0  0  0  0  0  0  0  0
    9.0928   -0.2516   25.1929 H   0  0  0  0  0  0  0  0  0  0  0  0
    7.8344    0.4441   24.1162 H   0  0  0  0  0  0  0  0  0  0  0  0
   13.5150    1.9184   24.1975 H   0  0  0  0  0  0  0  0  0  0  0  0
   14.8752    0.5681   22.6542 H   0  0  0  0  0  0  0  0  0  0  0  0
   11.4784   -1.8685   21.7812 H   0  0  0  0  0  0  0  0  0  0  0  0
    6.9055   -1.4745   22.8385 H   0  0  0  0  0  0  0  0  0  0  0  0
    7.5510   -2.4092   21.4469 H   0  0  0  0  0  0  0  0  0  0  0  0
    8.8976   -2.2592   23.8472 H   0  0  0  0  0  0  0  0  0  0  0  0
    9.7665   -2.3654   22.2787 H   0  0  0  0  0  0  0  0  0  0  0  0
    5.9341    0.9277   22.6753 H   0  0  0  0  0  0  0  0  0  0  0  0
    3.9356    2.2969   22.8805 H   0  0  0  0  0  0  0  0  0  0  0  0
    2.7937    3.1587   20.8802 H   0  0  0  0  0  0  0  0  0  0  0  0
    3.5810    2.5669   18.6533 H   0  0  0  0  0  0  0  0  0  0  0  0
    5.1809    1.2895   17.2119 H   0  0  0  0  0  0  0  0  0  0  0  0
    8.2536   -0.9212   18.8541 H   0  0  0  0  0  0  0  0  0  0  0  0
  1  2  3  0
  3  2  1  6
  3  4  1  0
  3  5  1  0
  3  6  1  0
  4  5  1  0
  4 36  1  6
  4 37  1  0
  5 38  1  6
  5 39  1  0
  6  7  1  0
  6 40  1  6
  6 41  1  0
  7  8  2  0
  7  9  2  0
  7 10  1  6
 10 11  1  0
 10 12  1  0
 11 15  1  0
 11 42  1  1
 11 43  1  0
 12 13  1  0
 12 44  1  1
 12 45  1  0
 13 14  1  0
 13 21  1  6
 13 25  1  0
 14 15  2  0
 14 18  1  0
 15 16  1  0
 16 17  2  0
 16 46  1  0
 17 19  1  0
 17 47  1  0
 18 19  2  0
 18 48  1  0
 19 20  1  0
 21 22  2  0
 21 23  1  0
 23 24  1  0
 23 26  1  0
 24 25  1  0
 24 49  1  1
 24 50  1  0
 25 51  1  1
 25 52  1  0
 26 27  2  0
 26 35  1  0
 27 28  1  0
 27 32  1  0
 28 29  2  0
 28 53  1  0
 29 30  1  0
 29 54  1  0
 30 31  2  0
 30 55  1  0
 31 32  1  0
 31 56  1  0
 32 33  2  0
 33 34  1  0
 33 57  1  0
 34 35  2  0
 35 58  1  0
M  END
$$$$
