LIG(A-305)
     RDKit          3D

 23 24  0  0  1  0  0  0  0  0999 V2000
    6.0455   -5.3321   19.7452 O   0  0  0  0  0  0  0  0  0  0  0  0
    6.7496   -4.5191   20.3252 C   0  0  0  0  0  0  0  0  0  0  0  0
    7.3577   -3.2792   19.6921 C   0  0  1  0  0  0  0  0  0  0  0  0
    6.3678   -2.5111   19.0391 O   0  0  0  0  0  0  0  0  0  0  0  0
    7.9398   -2.5832   20.9051 C   0  0  0  0  0  0  0  0  0  0  0  0
    8.5739   -1.3553   21.0741 C   0  0  0  0  0  0  0  0  0  0  0  0
    7.0516   -4.5321   21.6442 N   0  0  0  0  0  0  0  0  0  0  0  0
    7.7497   -3.3982   22.0201 C   0  0  0  0  0  0  0  0  0  0  0  0
    8.1877   -3.0162   23.2841 C   0  0  0  0  0  0  0  0  0  0  0  0
    8.8138   -1.7943   23.4411 C   0  0  0  0  0  0  0  0  0  0  0  0
    8.9889   -0.9693   22.3391 C   0  0  0  0  0  0  0  0  0  0  0  0
    9.7111    0.6246   22.5570 S   0  0  1  0  0  0  0  0  0  0  0  0
   10.9660    0.4335   23.2270 O   0  0  0  0  0  0  0  0  0  0  0  0
    9.6941    1.2786   21.2810 O   0  0  0  0  0  0  0  0  0  0  0  0
    8.7801    1.4838   23.5390 N   0  0  0  0  0  0  0  0  0  0  0  0
    8.1639   -3.5681   19.0017 H   0  0  0  0  0  0  0  0  0  0  0  0
    6.7468   -1.6925   18.7413 H   0  0  0  0  0  0  0  0  0  0  0  0
    8.7411   -0.7082   20.2258 H   0  0  0  0  0  0  0  0  0  0  0  0
    6.8010   -5.2705   22.2703 H   0  0  0  0  0  0  0  0  0  0  0  0
    8.0402   -3.6673   24.1331 H   0  0  0  0  0  0  0  0  0  0  0  0
    9.1643   -1.4837   24.4143 H   0  0  0  0  0  0  0  0  0  0  0  0
    8.4629    2.3050   23.0646 H   0  0  0  0  0  0  0  0  0  0  0  0
    7.9920    0.9346   23.8171 H   0  0  0  0  0  0  0  0  0  0  0  0
  1  2  2  0
  2  3  1  0
  2  7  1  0
  3  4  1  0
  3  5  1  0
  3 16  1  6
  4 17  1  0
  5  6  2  0
  5  8  1  0
  6 11  1  0
  6 18  1  0
  7  8  1  0
  7 19  1  0
  8  9  2  0
  9 10  1  0
  9 20  1  0
 10 11  2  0
 10 21  1  0
 11 12  1  0
 12 13  2  0
 12 14  2  0
 12 15  1  1
 15 22  1  0
 15 23  1  0
M  END
$$$$
