LIG(A-306)
     RDKit          3D

 44 47  0  0  1  0  0  0  0  0999 V2000
   14.0346   -1.5377   21.4946 Cl  0  0  0  0  0  0  0  0  0  0  0  0
   12.7385   -0.8260   22.4197 C   0  0  0  0  0  0  0  0  0  0  0  0
   11.4400   -1.2249   22.1681 C   0  0  0  0  0  0  0  0  0  0  0  0
   13.0267    0.1466   23.3530 C   0  0  0  0  0  0  0  0  0  0  0  0
   11.9886    0.7279   24.0590 C   0  0  0  0  0  0  0  0  0  0  0  0
   10.6625    0.3573   23.8272 C   0  0  0  0  0  0  0  0  0  0  0  0
    9.5677    0.9786   24.6715 C   0  0  1  0  0  0  0  0  0  0  0  0
    8.2195    0.6460   24.1884 N   0  0  0  0  0  0  0  0  0  0  0  0
    7.0896    1.2662   24.8911 C   0  0  0  0  0  0  0  0  0  0  0  0
    6.0482    0.6061   25.0457 O   0  0  0  0  0  0  0  0  0  0  0  0
    7.2139    2.5230   25.3339 N   0  0  0  0  0  0  0  0  0  0  0  0
   10.3881   -0.6206   22.8573 C   0  0  0  0  0  0  0  0  0  0  0  0
    8.9538   -1.0153   22.5695 C   0  0  1  0  0  0  0  0  0  0  0  0
    8.0889   -0.7599   23.8031 C   0  0  2  0  0  0  0  0  0  0  0  0
    8.4490   -0.1618   21.4041 C   0  0  0  0  0  0  0  0  0  0  0  0
    8.9884    0.9041   21.0873 O   0  0  0  0  0  0  0  0  0  0  0  0
    7.3476   -0.6503   20.7844 N   0  0  0  0  0  0  0  0  0  0  0  0
    6.5984   -0.0432   19.7593 C   0  0  0  0  0  0  0  0  0  0  0  0
    5.4949    0.7911   20.1232 C   0  0  0  0  0  0  0  0  0  0  0  0
    5.0672    0.9958   21.4605 C   0  0  0  0  0  0  0  0  0  0  0  0
    4.0058    1.8099   21.7424 C   0  0  0  0  0  0  0  0  0  0  0  0
    3.3160    2.4536   20.7213 C   0  0  0  0  0  0  0  0  0  0  0  0
    3.6904    2.2885   19.4183 C   0  0  0  0  0  0  0  0  0  0  0  0
    4.7894    1.4577   19.0823 C   0  0  0  0  0  0  0  0  0  0  0  0
    5.2260    1.2515   17.7512 C   0  0  0  0  0  0  0  0  0  0  0  0
    6.2436    0.4732   17.4118 N   0  0  0  0  0  0  0  0  0  0  0  0
    6.9020   -0.1508   18.3989 C   0  0  0  0  0  0  0  0  0  0  0  0
   11.2404   -1.9995   21.4425 H   0  0  0  0  0  0  0  0  0  0  0  0
   14.0478    0.4505   23.5304 H   0  0  0  0  0  0  0  0  0  0  0  0
   12.2075    1.4807   24.8017 H   0  0  0  0  0  0  0  0  0  0  0  0
    9.6710    0.6148   25.7045 H   0  0  0  0  0  0  0  0  0  0  0  0
    9.6878    2.0719   24.6541 H   0  0  0  0  0  0  0  0  0  0  0  0
    6.4519    2.9635   25.8086 H   0  0  0  0  0  0  0  0  0  0  0  0
    8.0687    3.0216   25.1901 H   0  0  0  0  0  0  0  0  0  0  0  0
    8.9062   -2.0799   22.2969 H   0  0  0  0  0  0  0  0  0  0  0  0
    7.0373   -0.9831   23.5699 H   0  0  0  0  0  0  0  0  0  0  0  0
    8.4254   -1.4026   24.6300 H   0  0  0  0  0  0  0  0  0  0  0  0
    7.0298   -1.5474   21.0913 H   0  0  0  0  0  0  0  0  0  0  0  0
    5.5878    0.5014   22.2673 H   0  0  0  0  0  0  0  0  0  0  0  0
    3.7001    1.9542   22.7681 H   0  0  0  0  0  0  0  0  0  0  0  0
    2.4767    3.0898   20.9606 H   0  0  0  0  0  0  0  0  0  0  0  0
    3.1443    2.7954   18.6364 H   0  0  0  0  0  0  0  0  0  0  0  0
    4.6952    1.7617   16.9610 H   0  0  0  0  0  0  0  0  0  0  0  0
    7.7309   -0.7854   18.1218 H   0  0  0  0  0  0  0  0  0  0  0  0
  1  2  1  0
  2  3  2  0
  2  4  1  0
  3 12  1  0
  3 28  1  0
  4  5  2  0
  4 29  1  0
  5  6  1  0
  5 30  1  0
  6  7  1  0
  6 12  2  0
  7  8  1  0
  7 31  1  1
  7 32  1  0
  8  9  1  0
  8 14  1  0
  9 10  2  0
  9 11  1  0
 11 33  1  0
 11 34  1  0
 12 13  1  0
 13 14  1  0
 13 15  1  0
 13 35  1  6
 14 36  1  6
 14 37  1  0
 15 16  2  0
 15 17  1  0
 17 18  1  0
 17 38  1  0
 18 19  2  0
 18 27  1  0
 19 20  1  0
 19 24  1  0
 20 21  2  0
 20 39  1  0
 21 22  1  0
 21 40  1  0
 22 23  2  0
 22 41  1  0
 23 24  1  0
 23 42  1  0
 24 25  2  0
 25 26  1  0
 25 43  1  0
 26 27  2  0
 27 44  1  0
M  END
$$$$
