LIG(A-305)
     RDKit          3D

 29 30  0  0  0  0  0  0  0  0999 V2000
    9.3059    1.0207   21.0401 O   0  0  0  0  0  0  0  0  0  0  0  0
    8.7839    0.0158   21.5072 C   0  0  0  0  0  0  0  0  0  0  0  0
    7.3339   -0.2451   21.3533 C   0  0  0  0  0  0  0  0  0  0  0  0
    6.6848    0.2239   20.1003 C   0  0  0  0  0  0  0  0  0  0  0  0
    7.2557   -0.0052   18.8513 C   0  0  0  0  0  0  0  0  0  0  0  0
    6.7317    0.4388   17.7063 N   0  0  0  0  0  0  0  0  0  0  0  0
    5.5938    1.1399   17.7773 C   0  0  0  0  0  0  0  0  0  0  0  0
    4.9458    1.4160   18.9643 C   0  0  0  0  0  0  0  0  0  0  0  0
    5.5009    0.9480   20.1373 C   0  0  0  0  0  0  0  0  0  0  0  0
    6.6439   -0.8350   22.3213 C   0  0  0  0  0  0  0  0  0  0  0  0
    9.4749   -0.9052   22.1942 N   0  0  0  0  0  0  0  0  0  0  0  0
   10.8179   -0.7813   22.6001 C   0  0  0  0  0  0  0  0  0  0  0  0
   11.7948   -1.6684   22.1771 C   0  0  0  0  0  0  0  0  0  0  0  0
   13.1319   -1.3495   22.3390 C   0  0  0  0  0  0  0  0  0  0  0  0
   13.4980   -0.1645   22.9419 C   0  0  0  0  0  0  0  0  0  0  0  0
   12.5331    0.6916   23.4119 C   0  0  0  0  0  0  0  0  0  0  0  0
   11.1910    0.3887   23.2520 C   0  0  0  0  0  0  0  0  0  0  0  0
    8.1731   -0.5734   18.8060 H   0  0  0  0  0  0  0  0  0  0  0  0
    5.1605    1.5083   16.8591 H   0  0  0  0  0  0  0  0  0  0  0  0
    4.0274    1.9841   18.9746 H   0  0  0  0  0  0  0  0  0  0  0  0
    5.0157    1.1443   21.0820 H   0  0  0  0  0  0  0  0  0  0  0  0
    5.5802   -0.9862   22.2114 H   0  0  0  0  0  0  0  0  0  0  0  0
    7.1461   -1.1639   23.2191 H   0  0  0  0  0  0  0  0  0  0  0  0
    8.9975   -1.7494   22.4384 H   0  0  0  0  0  0  0  0  0  0  0  0
   11.5135   -2.6066   21.7220 H   0  0  0  0  0  0  0  0  0  0  0  0
   13.8927   -2.0325   21.9912 H   0  0  0  0  0  0  0  0  0  0  0  0
   14.5426    0.0898   23.0442 H   0  0  0  0  0  0  0  0  0  0  0  0
   12.8219    1.6059   23.9089 H   0  0  0  0  0  0  0  0  0  0  0  0
   10.4358    1.0600   23.6330 H   0  0  0  0  0  0  0  0  0  0  0  0
  1  2  2  0
  2  3  1  0
  2 11  1  0
  3  4  1  0
  3 10  2  0
  4  5  2  0
  4  9  1  0
  5  6  1  0
  5 18  1  0
  6  7  2  0
  7  8  1  0
  7 19  1  0
  8  9  2  0
  8 20  1  0
  9 21  1  0
 10 22  1  0
 10 23  1  0
 11 12  1  0
 11 24  1  0
 12 13  2  0
 12 17  1  0
 13 14  1  0
 13 25  1  0
 14 15  2  0
 14 26  1  0
 15 16  1  0
 15 27  1  0
 16 17  2  0
 16 28  1  0
 17 29  1  0
M  END
$$$$
