LIG(A-305)
     RDKit          3D

 29 30  0  0  0  0  0  0  0  0999 V2000
   13.6460   -1.8290   21.4050 Cl  0  0  0  0  0  0  0  0  0  0  0  0
   12.4481   -0.9539   22.3170 C   0  0  0  0  0  0  0  0  0  0  0  0
   12.8572    0.0171   23.2030 C   0  0  0  0  0  0  0  0  0  0  0  0
   11.8992    0.6752   23.9540 C   0  0  0  0  0  0  0  0  0  0  0  0
   10.5552    0.3753   23.7910 C   0  0  0  0  0  0  0  0  0  0  0  0
   11.1111   -1.2648   22.1420 C   0  0  0  0  0  0  0  0  0  0  0  0
   10.1441   -0.5827   22.8760 C   0  0  0  0  0  0  0  0  0  0  0  0
    8.6751   -0.7985   22.5921 C   0  0  1  0  0  0  0  0  0  0  0  0
    8.2721   -0.0185   21.3561 C   0  0  0  0  0  0  0  0  0  0  0  0
    8.8592    1.0054   21.0120 O   0  0  0  0  0  0  0  0  0  0  0  0
    7.1961   -0.5214   20.6781 N   0  0  0  0  0  0  0  0  0  0  0  0
    6.7291    0.0226   19.4811 C   0  0  0  0  0  0  0  0  0  0  0  0
    5.7362    0.9767   19.3701 N   0  0  0  0  0  0  0  0  0  0  0  0
    5.0563    1.6967   20.4451 C   0  0  1  0  0  0  0  0  0  0  0  0
    7.1511   -0.2635   18.2241 C   0  0  0  0  0  0  0  0  0  0  0  0
    6.4341    0.4816   17.3151 N   0  0  0  0  0  0  0  0  0  0  0  0
    5.5992    1.1967   18.0411 C   0  0  0  0  0  0  0  0  0  0  0  0
   13.9040    0.2602   23.3097 H   0  0  0  0  0  0  0  0  0  0  0  0
   12.1996    1.4257   24.6702 H   0  0  0  0  0  0  0  0  0  0  0  0
    9.8181    0.8951   24.3850 H   0  0  0  0  0  0  0  0  0  0  0  0
   10.8192   -2.0320   21.4403 H   0  0  0  0  0  0  0  0  0  0  0  0
    8.4888   -1.8697   22.4250 H   0  0  0  0  0  0  0  0  0  0  0  0
    8.0821   -0.4530   23.4517 H   0  0  0  0  0  0  0  0  0  0  0  0
    6.7220   -1.3158   21.0578 H   0  0  0  0  0  0  0  0  0  0  0  0
    5.4544    1.3679   21.4164 H   0  0  0  0  0  0  0  0  0  0  0  0
    5.2252    2.7772   20.3265 H   0  0  0  0  0  0  0  0  0  0  0  0
    3.9773    1.4873   20.4013 H   0  0  0  0  0  0  0  0  0  0  0  0
    7.9305   -0.9681   17.9745 H   0  0  0  0  0  0  0  0  0  0  0  0
    4.8815    1.8855   17.6207 H   0  0  0  0  0  0  0  0  0  0  0  0
  1  2  1  0
  2  3  2  0
  2  6  1  0
  3  4  1  0
  3 18  1  0
  4  5  2  0
  4 19  1  0
  5  7  1  0
  5 20  1  0
  6  7  2  0
  6 21  1  0
  7  8  1  0
  8  9  1  0
  8 22  1  6
  8 23  1  0
  9 10  2  0
  9 11  1  0
 11 12  1  0
 11 24  1  0
 12 13  1  0
 12 15  2  0
 13 14  1  0
 13 17  1  0
 14 25  1  1
 14 26  1  0
 14 27  1  0
 15 16  1  0
 15 28  1  0
 16 17  2  0
 17 29  1  0
M  END
$$$$
