LIG(A-305)
     RDKit          3D

 30 31  0  0  0  0  0  0  0  0999 V2000
   13.9146   -1.8041   21.3570 Cl  0  0  0  0  0  0  0  0  0  0  0  0
   12.6817   -1.0290   22.3190 C   0  0  0  0  0  0  0  0  0  0  0  0
   13.0547   -0.1180   23.2829 C   0  0  0  0  0  0  0  0  0  0  0  0
   12.0758    0.3981   24.1210 C   0  0  0  0  0  0  0  0  0  0  0  0
   10.7487    0.0361   23.9540 C   0  0  0  0  0  0  0  0  0  0  0  0
   11.3606   -1.3920   22.1321 C   0  0  0  0  0  0  0  0  0  0  0  0
   10.3717   -0.8389   22.9431 C   0  0  0  0  0  0  0  0  0  0  0  0
    8.9117   -1.0889   22.6392 C   0  0  1  0  0  0  0  0  0  0  0  0
    8.4476   -0.2040   21.4971 C   0  0  0  0  0  0  0  0  0  0  0  0
    9.1397    0.7180   21.0731 O   0  0  0  0  0  0  0  0  0  0  0  0
    7.2306   -0.5160   20.9972 N   0  0  0  0  0  0  0  0  0  0  0  0
    6.5646    0.1240   19.9212 C   0  0  0  0  0  0  0  0  0  0  0  0
    5.4086    0.8911   20.1632 C   0  0  0  0  0  0  0  0  0  0  0  0
    4.8807    1.1192   21.5572 C   0  0  1  0  0  0  0  0  0  0  0  0
    6.9755    0.0309   18.5942 C   0  0  0  0  0  0  0  0  0  0  0  0
    6.3385    0.6029   17.5852 N   0  0  0  0  0  0  0  0  0  0  0  0
    5.2115    1.3349   17.8262 N   0  0  0  0  0  0  0  0  0  0  0  0
    4.7686    1.4690   19.0712 C   0  0  0  0  0  0  0  0  0  0  0  0
   14.0855    0.1877   23.3843 H   0  0  0  0  0  0  0  0  0  0  0  0
   12.3500    1.0856   24.9074 H   0  0  0  0  0  0  0  0  0  0  0  0
    9.9984    0.4392   24.6179 H   0  0  0  0  0  0  0  0  0  0  0  0
   11.0966   -2.1009   21.3612 H   0  0  0  0  0  0  0  0  0  0  0  0
    8.7758   -2.1437   22.3580 H   0  0  0  0  0  0  0  0  0  0  0  0
    8.3125   -0.8680   23.5348 H   0  0  0  0  0  0  0  0  0  0  0  0
    6.7500   -1.2776   21.4318 H   0  0  0  0  0  0  0  0  0  0  0  0
    5.6456    1.6299   22.1605 H   0  0  0  0  0  0  0  0  0  0  0  0
    3.9755    1.7423   21.5090 H   0  0  0  0  0  0  0  0  0  0  0  0
    4.6354    0.1514   22.0191 H   0  0  0  0  0  0  0  0  0  0  0  0
    7.8653   -0.5409   18.3758 H   0  0  0  0  0  0  0  0  0  0  0  0
    3.8749    2.0506   19.2430 H   0  0  0  0  0  0  0  0  0  0  0  0
  1  2  1  0
  2  3  2  0
  2  6  1  0
  3  4  1  0
  3 19  1  0
  4  5  2  0
  4 20  1  0
  5  7  1  0
  5 21  1  0
  6  7  2  0
  6 22  1  0
  7  8  1  0
  8  9  1  0
  8 23  1  6
  8 24  1  0
  9 10  2  0
  9 11  1  0
 11 12  1  0
 11 25  1  0
 12 13  2  0
 12 15  1  0
 13 14  1  0
 13 18  1  0
 14 26  1  1
 14 27  1  0
 14 28  1  0
 15 16  2  0
 15 29  1  0
 16 17  1  0
 17 18  2  0
 18 30  1  0
M  END
$$$$
