LIG(A-306)
     RDKit          3D

 32 34  0  0  0  0  0  0  0  0999 V2000
    8.9459    0.9666   21.3825 O   0  0  0  0  0  0  0  0  0  0  0  0
    8.6280   -0.1586   21.7754 C   0  0  0  0  0  0  0  0  0  0  0  0
    9.3224   -0.8200   22.9531 C   0  0  1  0  0  0  0  0  0  0  0  0
   10.7943   -0.4849   23.0867 C   0  0  0  0  0  0  0  0  0  0  0  0
   11.2145    0.5326   23.9355 C   0  0  0  0  0  0  0  0  0  0  0  0
   12.5467    0.9182   23.9797 C   0  0  0  0  0  0  0  0  0  0  0  0
   13.4822    0.2951   23.1691 C   0  0  0  0  0  0  0  0  0  0  0  0
   11.7413   -1.1438   22.3079 C   0  0  0  0  0  0  0  0  0  0  0  0
   13.0634   -0.7348   22.3485 C   0  0  0  0  0  0  0  0  0  0  0  0
   14.2211   -1.5064   21.2952 Cl  0  0  0  0  0  0  0  0  0  0  0  0
    7.6280   -0.8818   21.2297 N   0  0  0  0  0  0  0  0  0  0  0  0
    6.9475   -0.3785   20.1198 N   0  0  0  0  0  0  0  0  0  0  0  0
    5.8108    0.4394   20.1470 C   0  0  0  0  0  0  0  0  0  0  0  0
    5.5870    0.7633   18.8042 C   0  0  0  0  0  0  0  0  0  0  0  0
    6.5292    0.1283   17.9859 N   0  0  0  0  0  0  0  0  0  0  0  0
    7.3021   -0.5273   18.8180 C   0  0  0  0  0  0  0  0  0  0  0  0
    5.0269    0.9513   21.1717 C   0  0  0  0  0  0  0  0  0  0  0  0
    4.0036    1.8269   20.8244 C   0  0  0  0  0  0  0  0  0  0  0  0
    3.7813    2.1821   19.4910 C   0  0  0  0  0  0  0  0  0  0  0  0
    4.5631    1.6491   18.4698 C   0  0  0  0  0  0  0  0  0  0  0  0
    8.8131   -0.5017   23.8746 H   0  0  0  0  0  0  0  0  0  0  0  0
    9.2275   -1.9100   22.8394 H   0  0  0  0  0  0  0  0  0  0  0  0
   10.4946    1.0296   24.5690 H   0  0  0  0  0  0  0  0  0  0  0  0
   12.8560    1.7074   24.6490 H   0  0  0  0  0  0  0  0  0  0  0  0
   14.5160    0.6076   23.1784 H   0  0  0  0  0  0  0  0  0  0  0  0
   11.4467   -1.9687   21.6762 H   0  0  0  0  0  0  0  0  0  0  0  0
    7.3770   -1.7691   21.6165 H   0  0  0  0  0  0  0  0  0  0  0  0
    8.1406   -1.1282   18.4982 H   0  0  0  0  0  0  0  0  0  0  0  0
    5.2051    0.6796   22.2015 H   0  0  0  0  0  0  0  0  0  0  0  0
    3.3710    2.2386   21.5969 H   0  0  0  0  0  0  0  0  0  0  0  0
    2.9925    2.8793   19.2496 H   0  0  0  0  0  0  0  0  0  0  0  0
    4.3804    1.9162   17.4395 H   0  0  0  0  0  0  0  0  0  0  0  0
  1  2  2  0
  2  3  1  0
  2 11  1  0
  3  4  1  0
  3 21  1  1
  3 22  1  0
  4  5  2  0
  4  8  1  0
  5  6  1  0
  5 23  1  0
  6  7  2  0
  6 24  1  0
  7  9  1  0
  7 25  1  0
  8  9  2  0
  8 26  1  0
  9 10  1  0
 11 12  1  0
 11 27  1  0
 12 13  1  0
 12 16  1  0
 13 14  2  0
 13 17  1  0
 14 15  1  0
 14 20  1  0
 15 16  2  0
 16 28  1  0
 17 18  2  0
 17 29  1  0
 18 19  1  0
 18 30  1  0
 19 20  2  0
 19 31  1  0
 20 32  1  0
M  END
$$$$
