LIG(A-306)
     RDKit          3D

 55 58  0  0  1  0  0  0  0  0999 V2000
   10.3849    2.2928   25.2314 O   0  0  0  0  0  0  0  0  0  0  0  0
   10.0583    1.3092   24.5934 C   0  0  0  0  0  0  0  0  0  0  0  0
    8.7583    0.8644   24.5631 N   0  0  0  0  0  0  0  0  0  0  0  0
    7.7750    1.4655   25.4498 C   0  0  1  0  0  0  0  0  0  0  0  0
    6.9877    2.6535   24.9224 C   0  0  0  0  0  0  0  0  0  0  0  0
    6.4671    3.4620   25.6917 O   0  0  0  0  0  0  0  0  0  0  0  0
    6.8525    2.7162   23.5880 N   0  0  0  0  0  0  0  0  0  0  0  0
    7.2019    3.8968   22.7835 C   0  0  2  0  0  0  0  0  0  0  0  0
    8.5284    4.5004   23.2069 C   0  0  1  0  0  0  0  0  0  0  0  0
    6.0779    4.9119   22.7980 C   0  0  1  0  0  0  0  0  0  0  0  0
   11.0331    0.5718   23.7693 C   0  0  0  0  0  0  0  0  0  0  0  0
   12.3777    0.9492   23.8004 C   0  0  0  0  0  0  0  0  0  0  0  0
   13.3173    0.2506   23.0637 C   0  0  0  0  0  0  0  0  0  0  0  0
   12.9114   -0.8358   22.3173 C   0  0  0  0  0  0  0  0  0  0  0  0
   14.0998   -1.7537   21.4307 Cl  0  0  0  0  0  0  0  0  0  0  0  0
   11.5833   -1.2168   22.2526 C   0  0  0  0  0  0  0  0  0  0  0  0
   10.6231   -0.4930   22.9581 C   0  0  0  0  0  0  0  0  0  0  0  0
    9.1537   -0.8213   22.8030 C   0  0  1  0  0  0  0  0  0  0  0  0
    8.4096   -0.4805   24.0954 C   0  0  2  0  0  0  0  0  0  0  0  0
    8.5786   -0.0120   21.6385 C   0  0  0  0  0  0  0  0  0  0  0  0
    9.0297    1.0890   21.3181 O   0  0  0  0  0  0  0  0  0  0  0  0
    7.5157   -0.5824   21.0256 N   0  0  0  0  0  0  0  0  0  0  0  0
    6.7532   -0.0571   19.9590 C   0  0  0  0  0  0  0  0  0  0  0  0
    5.6087    0.7385   20.2759 C   0  0  0  0  0  0  0  0  0  0  0  0
    5.0949    0.8842   21.5874 C   0  0  0  0  0  0  0  0  0  0  0  0
    3.9981    1.6540   21.8317 C   0  0  0  0  0  0  0  0  0  0  0  0
    3.3898    2.3050   20.7873 C   0  0  0  0  0  0  0  0  0  0  0  0
    2.2989    3.0700   21.0598 F   0  0  0  0  0  0  0  0  0  0  0  0
    3.8122    2.2148   19.4990 C   0  0  0  0  0  0  0  0  0  0  0  0
    4.9370    1.4045   19.2113 C   0  0  0  0  0  0  0  0  0  0  0  0
    5.4260    1.1997   17.8976 C   0  0  0  0  0  0  0  0  0  0  0  0
    6.4671    0.4349   17.5975 N   0  0  0  0  0  0  0  0  0  0  0  0
    7.1059   -0.1670   18.6115 C   0  0  0  0  0  0  0  0  0  0  0  0
    7.0501    0.6825   25.7170 H   0  0  0  0  0  0  0  0  0  0  0  0
    8.3061    1.7975   26.3540 H   0  0  0  0  0  0  0  0  0  0  0  0
    6.4930    1.9129   23.1133 H   0  0  0  0  0  0  0  0  0  0  0  0
    7.3197    3.5635   21.7418 H   0  0  0  0  0  0  0  0  0  0  0  0
    8.7492    5.3776   22.5808 H   0  0  0  0  0  0  0  0  0  0  0  0
    8.4714    4.8079   24.2615 H   0  0  0  0  0  0  0  0  0  0  0  0
    9.3266    3.7533   23.0854 H   0  0  0  0  0  0  0  0  0  0  0  0
    6.3628    5.7837   22.1907 H   0  0  0  0  0  0  0  0  0  0  0  0
    5.1674    4.4566   22.3813 H   0  0  0  0  0  0  0  0  0  0  0  0
    5.8870    5.2327   23.8327 H   0  0  0  0  0  0  0  0  0  0  0  0
   12.6855    1.7911   24.4028 H   0  0  0  0  0  0  0  0  0  0  0  0
   14.3544    0.5517   23.0729 H   0  0  0  0  0  0  0  0  0  0  0  0
   11.2917   -2.0704   21.6586 H   0  0  0  0  0  0  0  0  0  0  0  0
    9.0384   -1.8944   22.5905 H   0  0  0  0  0  0  0  0  0  0  0  0
    7.3263   -0.5273   23.9099 H   0  0  0  0  0  0  0  0  0  0  0  0
    8.6808   -1.2125   24.8704 H   0  0  0  0  0  0  0  0  0  0  0  0
    7.2377   -1.4801   21.3675 H   0  0  0  0  0  0  0  0  0  0  0  0
    5.5808    0.3766   22.4075 H   0  0  0  0  0  0  0  0  0  0  0  0
    3.6114    1.7511   22.8354 H   0  0  0  0  0  0  0  0  0  0  0  0
    3.3013    2.7494   18.7119 H   0  0  0  0  0  0  0  0  0  0  0  0
    4.9172    1.6996   17.0866 H   0  0  0  0  0  0  0  0  0  0  0  0
    7.9582   -0.7839   18.3679 H   0  0  0  0  0  0  0  0  0  0  0  0
  1  2  2  0
  2  3  1  0
  2 11  1  0
  3  4  1  0
  3 19  1  0
  4  5  1  0
  4 34  1  1
  4 35  1  0
  5  6  2  0
  5  7  1  0
  7  8  1  0
  7 36  1  0
  8  9  1  0
  8 10  1  0
  8 37  1  6
  9 38  1  6
  9 39  1  0
  9 40  1  0
 10 41  1  6
 10 42  1  0
 10 43  1  0
 11 12  2  0
 11 17  1  0
 12 13  1  0
 12 44  1  0
 13 14  2  0
 13 45  1  0
 14 15  1  0
 14 16  1  0
 16 17  2  0
 16 46  1  0
 17 18  1  0
 18 19  1  0
 18 20  1  0
 18 47  1  6
 19 48  1  6
 19 49  1  0
 20 21  2  0
 20 22  1  0
 22 23  1  0
 22 50  1  0
 23 24  2  0
 23 33  1  0
 24 25  1  0
 24 30  1  0
 25 26  2  0
 25 51  1  0
 26 27  1  0
 26 52  1  0
 27 28  1  0
 27 29  2  0
 29 30  1  0
 29 53  1  0
 30 31  2  0
 31 32  1  0
 31 54  1  0
 32 33  2  0
 33 55  1  0
M  END
$$$$
