LIG(A-306)
     RDKit          3D

 50 54  0  0  1  0  0  0  0  0999 V2000
   -9.1845    0.6292  -21.3025 O   0  0  0  0  0  0  0  0  0  0  0  0
   -8.8672   -0.5550  -21.2312 C   0  0  0  0  0  0  0  0  0  0  0  0
   -8.0980   -1.0526  -20.2443 N   0  0  0  0  0  0  0  0  0  0  0  0
   -7.0845   -0.4515  -19.4694 C   0  0  0  0  0  0  0  0  0  0  0  0
   -6.1771    0.5136  -20.0205 C   0  0  0  0  0  0  0  0  0  0  0  0
   -5.9302    0.6640  -21.4133 C   0  0  0  0  0  0  0  0  0  0  0  0
   -4.9577    1.5095  -21.8689 C   0  0  0  0  0  0  0  0  0  0  0  0
   -4.1896    2.2499  -20.9816 C   0  0  0  0  0  0  0  0  0  0  0  0
   -4.3982    2.1546  -19.6346 C   0  0  0  0  0  0  0  0  0  0  0  0
   -5.3900    1.2831  -19.1181 C   0  0  0  0  0  0  0  0  0  0  0  0
   -5.5781    1.0692  -17.7346 C   0  0  0  0  0  0  0  0  0  0  0  0
   -6.4109    0.1781  -17.2244 N   0  0  0  0  0  0  0  0  0  0  0  0
   -7.1212   -0.5629  -18.0801 C   0  0  0  0  0  0  0  0  0  0  0  0
   -9.4551   -1.6149  -22.1664 C   0  0  1  0  0  0  0  0  0  0  0  0
  -10.8916   -1.3017  -22.5296 C   0  0  0  0  0  0  0  0  0  0  0  0
  -11.1654   -0.4006  -23.5646 C   0  0  0  0  0  0  0  0  0  0  0  0
  -12.4774   -0.0435  -23.8673 C   0  0  0  0  0  0  0  0  0  0  0  0
  -13.5215   -0.5959  -23.1448 C   0  0  0  0  0  0  0  0  0  0  0  0
  -11.9515   -1.8713  -21.8314 C   0  0  0  0  0  0  0  0  0  0  0  0
  -13.2459   -1.5085  -22.1446 C   0  0  0  0  0  0  0  0  0  0  0  0
  -14.5599   -2.2092  -21.2373 Cl  0  0  0  0  0  0  0  0  0  0  0  0
   -8.6493   -1.7187  -23.4769 C   0  0  1  0  0  0  0  0  0  0  0  0
   -8.7203   -0.4097  -24.2682 C   0  0  1  0  0  0  0  0  0  0  0  0
  -10.0829    0.1316  -24.3537 N   0  0  0  0  0  0  0  0  0  0  0  0
  -10.2545    1.2938  -25.2023 C   0  0  1  0  0  0  0  0  0  0  0  0
  -10.3897    0.9076  -26.6384 C   0  0  0  0  0  0  0  0  0  0  0  0
  -10.9571   -0.2594  -27.0541 N   0  0  0  0  0  0  0  0  0  0  0  0
  -10.9356   -0.2604  -28.4192 C   0  0  0  0  0  0  0  0  0  0  0  0
  -10.3478    0.9234  -28.7935 C   0  0  0  0  0  0  0  0  0  0  0  0
  -10.0044    1.6549  -27.6781 N   0  0  0  0  0  0  0  0  0  0  0  0
   -8.2755   -2.0116  -20.0233 H   0  0  0  0  0  0  0  0  0  0  0  0
   -6.5202    0.1015  -22.1216 H   0  0  0  0  0  0  0  0  0  0  0  0
   -4.7853    1.6024  -22.9310 H   0  0  0  0  0  0  0  0  0  0  0  0
   -3.4202    2.9071  -21.3589 H   0  0  0  0  0  0  0  0  0  0  0  0
   -3.8023    2.7484  -18.9574 H   0  0  0  0  0  0  0  0  0  0  0  0
   -5.0037    1.6735  -17.0482 H   0  0  0  0  0  0  0  0  0  0  0  0
   -7.7782   -1.3104  -17.6606 H   0  0  0  0  0  0  0  0  0  0  0  0
   -9.4216   -2.5897  -21.6580 H   0  0  0  0  0  0  0  0  0  0  0  0
  -12.6792    0.6604  -24.6612 H   0  0  0  0  0  0  0  0  0  0  0  0
  -14.5419   -0.3161  -23.3610 H   0  0  0  0  0  0  0  0  0  0  0  0
  -11.7628   -2.5923  -21.0497 H   0  0  0  0  0  0  0  0  0  0  0  0
   -7.5984   -1.9377  -23.2368 H   0  0  0  0  0  0  0  0  0  0  0  0
   -9.0627   -2.5330  -24.0901 H   0  0  0  0  0  0  0  0  0  0  0  0
   -8.0772    0.3342  -23.7752 H   0  0  0  0  0  0  0  0  0  0  0  0
   -8.3514   -0.5951  -25.2878 H   0  0  0  0  0  0  0  0  0  0  0  0
  -11.1609    1.8333  -24.8905 H   0  0  0  0  0  0  0  0  0  0  0  0
   -9.3795    1.9508  -25.0897 H   0  0  0  0  0  0  0  0  0  0  0  0
  -11.3182   -0.9815  -26.4586 H   0  0  0  0  0  0  0  0  0  0  0  0
  -11.3061   -1.0359  -29.0731 H   0  0  0  0  0  0  0  0  0  0  0  0
  -10.1795    1.2351  -29.8138 H   0  0  0  0  0  0  0  0  0  0  0  0
  1  2  2  0
  2  3  1  0
  2 14  1  0
  3  4  1  0
  3 31  1  0
  4  5  2  0
  4 13  1  0
  5  6  1  0
  5 10  1  0
  6  7  2  0
  6 32  1  0
  7  8  1  0
  7 33  1  0
  8  9  2  0
  8 34  1  0
  9 10  1  0
  9 35  1  0
 10 11  2  0
 11 12  1  0
 11 36  1  0
 12 13  2  0
 13 37  1  0
 14 15  1  0
 14 22  1  0
 14 38  1  1
 15 16  2  0
 15 19  1  0
 16 17  1  0
 16 24  1  0
 17 18  2  0
 17 39  1  0
 18 20  1  0
 18 40  1  0
 19 20  2  0
 19 41  1  0
 20 21  1  0
 22 23  1  0
 22 42  1  1
 22 43  1  0
 23 24  1  0
 23 44  1  1
 23 45  1  0
 24 25  1  0
 25 26  1  0
 25 46  1  1
 25 47  1  0
 26 27  1  0
 26 30  2  0
 27 28  1  0
 27 48  1  0
 28 29  2  0
 28 49  1  0
 29 30  1  0
 29 50  1  0
M  END
$$$$
