LIG(A-305)
     RDKit          3D

 44 45  0  0  0  0  0  0  0  0999 V2000
    8.9632    0.6156   20.9430 O   0  0  0  0  0  0  0  0  0  0  0  0
    8.3292   -0.3873   21.2651 C   0  0  0  0  0  0  0  0  0  0  0  0
    7.1212   -0.7004   20.7581 N   0  0  0  0  0  0  0  0  0  0  0  0
    6.4922    0.0076   19.7061 C   0  0  0  0  0  0  0  0  0  0  0  0
    5.3762    0.8116   19.9791 C   0  0  0  0  0  0  0  0  0  0  0  0
    4.8382    0.9817   21.3781 C   0  0  1  0  0  0  0  0  0  0  0  0
    4.8212    1.5156   18.9140 C   0  0  0  0  0  0  0  0  0  0  0  0
    5.3842    1.4115   17.6590 C   0  0  0  0  0  0  0  0  0  0  0  0
    6.4542    0.6545   17.3881 N   0  0  0  0  0  0  0  0  0  0  0  0
    6.9882   -0.0345   18.4031 C   0  0  0  0  0  0  0  0  0  0  0  0
    8.8642   -1.3913   22.2681 C   0  0  1  0  0  0  0  0  0  0  0  0
   10.2333   -0.9653   22.7461 C   0  0  0  0  0  0  0  0  0  0  0  0
   11.3792   -1.4703   22.1431 C   0  0  0  0  0  0  0  0  0  0  0  0
   12.6173   -0.9953   22.5150 C   0  0  0  0  0  0  0  0  0  0  0  0
   14.0392   -1.6413   21.7320 Cl  0  0  0  0  0  0  0  0  0  0  0  0
   12.7583   -0.0392   23.5010 C   0  0  0  0  0  0  0  0  0  0  0  0
   11.6273    0.4418   24.1430 C   0  0  0  0  0  0  0  0  0  0  0  0
   10.3733   -0.0022   23.7450 C   0  0  0  0  0  0  0  0  0  0  0  0
    9.1983    0.5558   24.1800 O   0  0  0  0  0  0  0  0  0  0  0  0
    8.8653    0.4838   25.5770 C   0  0  1  0  0  0  0  0  0  0  0  0
    7.3733    0.6758   25.7070 C   0  0  1  0  0  0  0  0  0  0  0  0
    6.5593   -0.4562   25.0781 C   0  0  1  0  0  0  0  0  0  0  0  0
    5.0643   -0.2882   25.2301 C   0  0  1  0  0  0  0  0  0  0  0  0
    6.6377   -1.4831   21.1500 H   0  0  0  0  0  0  0  0  0  0  0  0
    5.6177    1.4167   22.0209 H   0  0  0  0  0  0  0  0  0  0  0  0
    3.9654    1.6508   21.3563 H   0  0  0  0  0  0  0  0  0  0  0  0
    4.5388    0.0013   21.7773 H   0  0  0  0  0  0  0  0  0  0  0  0
    3.9540    2.1402   19.0696 H   0  0  0  0  0  0  0  0  0  0  0  0
    4.9372    1.9715   16.8509 H   0  0  0  0  0  0  0  0  0  0  0  0
    7.8486   -0.6559   18.2030 H   0  0  0  0  0  0  0  0  0  0  0  0
    8.1798   -1.4479   23.1273 H   0  0  0  0  0  0  0  0  0  0  0  0
    8.9363   -2.3798   21.7910 H   0  0  0  0  0  0  0  0  0  0  0  0
   11.2989   -2.2342   21.3839 H   0  0  0  0  0  0  0  0  0  0  0  0
   13.7374    0.3295   23.7690 H   0  0  0  0  0  0  0  0  0  0  0  0
   11.7211    1.1568   24.9470 H   0  0  0  0  0  0  0  0  0  0  0  0
    9.1525   -0.4986   25.9800 H   0  0  0  0  0  0  0  0  0  0  0  0
    9.3938    1.2752   26.1288 H   0  0  0  0  0  0  0  0  0  0  0  0
    7.1209    0.7348   26.7760 H   0  0  0  0  0  0  0  0  0  0  0  0
    7.0986    1.6194   25.2129 H   0  0  0  0  0  0  0  0  0  0  0  0
    6.7964   -0.4993   24.0048 H   0  0  0  0  0  0  0  0  0  0  0  0
    6.8527   -1.4022   25.5567 H   0  0  0  0  0  0  0  0  0  0  0  0
    4.5493   -1.1364   24.7554 H   0  0  0  0  0  0  0  0  0  0  0  0
    4.8061   -0.2541   26.2988 H   0  0  0  0  0  0  0  0  0  0  0  0
    4.7497    0.6486   24.7469 H   0  0  0  0  0  0  0  0  0  0  0  0
  1  2  2  0
  2  3  1  0
  2 11  1  0
  3  4  1  0
  3 24  1  0
  4  5  2  0
  4 10  1  0
  5  6  1  0
  5  7  1  0
  6 25  1  1
  6 26  1  0
  6 27  1  0
  7  8  2  0
  7 28  1  0
  8  9  1  0
  8 29  1  0
  9 10  2  0
 10 30  1  0
 11 12  1  0
 11 31  1  1
 11 32  1  0
 12 13  2  0
 12 18  1  0
 13 14  1  0
 13 33  1  0
 14 15  1  0
 14 16  2  0
 16 17  1  0
 16 34  1  0
 17 18  2  0
 17 35  1  0
 18 19  1  0
 19 20  1  0
 20 21  1  0
 20 36  1  1
 20 37  1  0
 21 22  1  0
 21 38  1  1
 21 39  1  0
 22 23  1  0
 22 40  1  6
 22 41  1  0
 23 42  1  6
 23 43  1  0
 23 44  1  0
M  END
$$$$
