LIG(A-305)
     RDKit          3D

 31 32  0  0  0  0  0  0  0  0999 V2000
   13.8416   -1.7981   21.2570 Cl  0  0  0  0  0  0  0  0  0  0  0  0
   12.6706   -1.0100   22.2800 C   0  0  0  0  0  0  0  0  0  0  0  0
   13.1017   -0.1170   23.2429 C   0  0  0  0  0  0  0  0  0  0  0  0
   12.1648    0.4311   24.1100 C   0  0  0  0  0  0  0  0  0  0  0  0
   10.8238    0.1072   23.9840 C   0  0  0  0  0  0  0  0  0  0  0  0
   11.3316   -1.3229   22.1281 C   0  0  0  0  0  0  0  0  0  0  0  0
   10.3897   -0.7468   22.9791 C   0  0  0  0  0  0  0  0  0  0  0  0
    8.9167   -0.9568   22.7252 C   0  0  1  0  0  0  0  0  0  0  0  0
    8.4567   -0.1658   21.5151 C   0  0  0  0  0  0  0  0  0  0  0  0
    9.0867    0.7971   21.0881 O   0  0  0  0  0  0  0  0  0  0  0  0
    7.2956   -0.5878   20.9792 N   0  0  0  0  0  0  0  0  0  0  0  0
    6.6306    0.0352   19.9042 C   0  0  0  0  0  0  0  0  0  0  0  0
    5.4907    0.8243   20.1422 C   0  0  0  0  0  0  0  0  0  0  0  0
    4.8597    0.9334   21.5052 C   0  0  1  0  0  0  0  0  0  0  0  0
    7.1445   -0.0379   18.6112 C   0  0  0  0  0  0  0  0  0  0  0  0
    6.6195    0.6271   17.5762 N   0  0  0  0  0  0  0  0  0  0  0  0
    5.5396    1.3811   17.8132 C   0  0  0  0  0  0  0  0  0  0  0  0
    4.9527    1.5082   19.0562 C   0  0  0  0  0  0  0  0  0  0  0  0
   14.1456    0.1493   23.3197 H   0  0  0  0  0  0  0  0  0  0  0  0
   12.4831    1.1125   24.8852 H   0  0  0  0  0  0  0  0  0  0  0  0
   10.1071    0.5242   24.6761 H   0  0  0  0  0  0  0  0  0  0  0  0
   11.0181   -2.0091   21.3552 H   0  0  0  0  0  0  0  0  0  0  0  0
    8.7308   -2.0264   22.5479 H   0  0  0  0  0  0  0  0  0  0  0  0
    8.3487   -0.6273   23.6077 H   0  0  0  0  0  0  0  0  0  0  0  0
    6.8738   -1.4042   21.3735 H   0  0  0  0  0  0  0  0  0  0  0  0
    5.5916    1.3433   22.2169 H   0  0  0  0  0  0  0  0  0  0  0  0
    3.9865    1.6003   21.4526 H   0  0  0  0  0  0  0  0  0  0  0  0
    4.5398   -0.0638   21.8419 H   0  0  0  0  0  0  0  0  0  0  0  0
    8.0086   -0.6617   18.4362 H   0  0  0  0  0  0  0  0  0  0  0  0
    5.1028    1.9204   16.9857 H   0  0  0  0  0  0  0  0  0  0  0  0
    4.0820    2.1341   19.1849 H   0  0  0  0  0  0  0  0  0  0  0  0
  1  2  1  0
  2  3  2  0
  2  6  1  0
  3  4  1  0
  3 19  1  0
  4  5  2  0
  4 20  1  0
  5  7  1  0
  5 21  1  0
  6  7  2  0
  6 22  1  0
  7  8  1  0
  8  9  1  0
  8 23  1  6
  8 24  1  0
  9 10  2  0
  9 11  1  0
 11 12  1  0
 11 25  1  0
 12 13  2  0
 12 15  1  0
 13 14  1  0
 13 18  1  0
 14 26  1  1
 14 27  1  0
 14 28  1  0
 15 16  2  0
 15 29  1  0
 16 17  1  0
 17 18  2  0
 17 30  1  0
 18 31  1  0
M  END
$$$$
