LIG(A-305)
     RDKit          3D

 37 40  0  0  1  0  0  0  0  0999 V2000
    8.5424    0.9135   21.0873 O   0  0  0  0  0  0  0  0  0  0  0  0
    8.2132   -0.2705   21.1223 C   0  0  0  0  0  0  0  0  0  0  0  0
    8.7352   -1.2335   22.1883 C   0  0  1  0  0  0  0  0  0  0  0  0
   10.2202   -1.5757   21.9431 C   0  0  1  0  0  0  0  0  0  0  0  0
   11.1163   -0.7597   22.8411 C   0  0  1  0  0  0  0  0  0  0  0  0
   10.7424   -0.9017   24.2211 O   0  0  0  0  0  0  0  0  0  0  0  0
    8.4334   -0.6135   23.5393 C   0  0  0  0  0  0  0  0  0  0  0  0
    9.4535   -0.5086   24.4852 C   0  0  0  0  0  0  0  0  0  0  0  0
    9.2286    0.0575   25.7292 C   0  0  0  0  0  0  0  0  0  0  0  0
    7.9807    0.5706   26.0313 C   0  0  0  0  0  0  0  0  0  0  0  0
    7.1775   -0.0954   23.8614 C   0  0  0  0  0  0  0  0  0  0  0  0
    6.9766    0.4997   25.0914 C   0  0  0  0  0  0  0  0  0  0  0  0
    5.4237    1.2078   25.4515 Cl  0  0  0  0  0  0  0  0  0  0  0  0
    7.5361   -0.8614   20.1074 N   0  0  0  0  0  0  0  0  0  0  0  0
    6.7731   -0.4024   19.0864 C   0  0  0  0  0  0  0  0  0  0  0  0
    5.8232    0.5827   19.2475 N   0  0  0  0  0  0  0  0  0  0  0  0
    5.5411    1.0067   17.9805 C   0  0  0  0  0  0  0  0  0  0  0  0
    6.2270    0.3407   17.1004 N   0  0  0  0  0  0  0  0  0  0  0  0
    7.0059   -0.5754   17.7964 N   0  0  0  0  0  0  0  0  0  0  0  0
    5.1623    0.9918   20.5085 C   0  0  2  0  0  0  0  0  0  0  0  0
    3.9244    1.8169   20.4236 C   0  0  1  0  0  0  0  0  0  0  0  0
    5.2035    2.4268   20.9035 C   0  0  2  0  0  0  0  0  0  0  0  0
    8.1603   -2.1680   22.1080 H   0  0  0  0  0  0  0  0  0  0  0  0
   10.3820   -2.6443   22.1478 H   0  0  0  0  0  0  0  0  0  0  0  0
   10.4706   -1.3613   20.8937 H   0  0  0  0  0  0  0  0  0  0  0  0
   12.1550   -1.0991   22.7146 H   0  0  0  0  0  0  0  0  0  0  0  0
   11.0396    0.3000   22.5564 H   0  0  0  0  0  0  0  0  0  0  0  0
   10.0236    0.0978   26.4591 H   0  0  0  0  0  0  0  0  0  0  0  0
    7.7952    1.0224   26.9946 H   0  0  0  0  0  0  0  0  0  0  0  0
    6.3662   -0.1597   23.1513 H   0  0  0  0  0  0  0  0  0  0  0  0
    7.6181   -1.8580   20.1138 H   0  0  0  0  0  0  0  0  0  0  0  0
    4.8400    1.7926   17.7412 H   0  0  0  0  0  0  0  0  0  0  0  0
    5.2000    0.2643   21.3327 H   0  0  0  0  0  0  0  0  0  0  0  0
    3.5155    2.0966   19.4414 H   0  0  0  0  0  0  0  0  0  0  0  0
    3.0982    1.6442   21.1290 H   0  0  0  0  0  0  0  0  0  0  0  0
    5.7356    3.1556   20.2746 H   0  0  0  0  0  0  0  0  0  0  0  0
    5.3183    2.7031   21.9620 H   0  0  0  0  0  0  0  0  0  0  0  0
  1  2  2  0
  2  3  1  0
  2 14  1  0
  3  4  1  0
  3  7  1  0
  3 23  1  1
  4  5  1  0
  4 24  1  1
  4 25  1  0
  5  6  1  0
  5 26  1  1
  5 27  1  0
  6  8  1  0
  7  8  2  0
  7 11  1  0
  8  9  1  0
  9 10  2  0
  9 28  1  0
 10 12  1  0
 10 29  1  0
 11 12  2  0
 11 30  1  0
 12 13  1  0
 14 15  1  0
 14 31  1  0
 15 16  1  0
 15 19  2  0
 16 17  1  0
 16 20  1  0
 17 18  2  0
 17 32  1  0
 18 19  1  0
 20 21  1  0
 20 22  1  0
 20 33  1  1
 21 22  1  0
 21 34  1  6
 21 35  1  0
 22 36  1  6
 22 37  1  0
M  END
$$$$
