LIG(A-307)
     RDKit          3D

 56 59  0  0  0  0  0  0  0  0999 V2000
    9.2546    1.1351   21.1343 O   0  0  0  0  0  0  0  0  0  0  0  0
    9.0103    0.0145   21.5711 C   0  0  0  0  0  0  0  0  0  0  0  0
    7.9300   -0.8477   20.9460 C   0  0  1  0  0  0  0  0  0  0  0  0
    7.1413   -0.1149   19.8875 C   0  0  0  0  0  0  0  0  0  0  0  0
    6.0728    0.7546   20.2438 C   0  0  0  0  0  0  0  0  0  0  0  0
    5.7194    1.0475   21.5881 C   0  0  0  0  0  0  0  0  0  0  0  0
    4.6942    1.9061   21.8754 C   0  0  0  0  0  0  0  0  0  0  0  0
    3.9773    2.5165   20.8553 C   0  0  0  0  0  0  0  0  0  0  0  0
    4.2796    2.2681   19.5477 C   0  0  0  0  0  0  0  0  0  0  0  0
    5.3296    1.3805   19.2057 C   0  0  0  0  0  0  0  0  0  0  0  0
    5.7076    1.0948   17.8726 C   0  0  0  0  0  0  0  0  0  0  0  0
    6.7152    0.2991   17.5418 N   0  0  0  0  0  0  0  0  0  0  0  0
    7.4023   -0.2801   18.5393 C   0  0  0  0  0  0  0  0  0  0  0  0
    9.6651   -0.5004   22.6360 N   0  0  0  0  0  0  0  0  0  0  0  0
   10.5907    0.3266   23.3810 C   0  0  1  0  0  0  0  0  0  0  0  0
   12.0043    0.0196   22.9928 C   0  0  0  0  0  0  0  0  0  0  0  0
   13.2981    0.8285   23.7173 S   0  0  0  0  0  0  0  0  0  0  0  0
   14.4393    0.0048   22.7351 C   0  0  0  0  0  0  0  0  0  0  0  0
   13.8653   -0.8708   21.8823 C   0  0  0  0  0  0  0  0  0  0  0  0
   12.4561   -0.8930   22.0126 C   0  0  0  0  0  0  0  0  0  0  0  0
    9.5055   -1.8831   23.1092 C   0  0  1  0  0  0  0  0  0  0  0  0
    8.5330   -1.9802   24.2748 C   0  0  1  0  0  0  0  0  0  0  0  0
    8.5310   -3.3935   24.8627 C   0  0  1  0  0  0  0  0  0  0  0  0
    9.8391   -3.7034   25.5877 C   0  0  1  0  0  0  0  0  0  0  0  0
    9.8489   -5.0990   26.2112 C   0  0  1  0  0  0  0  0  0  0  0  0
    8.6624   -5.3028   27.1449 C   0  0  1  0  0  0  0  0  0  0  0  0
    7.3549   -5.0137   26.4246 C   0  0  1  0  0  0  0  0  0  0  0  0
    7.3538   -3.6134   25.8121 C   0  0  2  0  0  0  0  0  0  0  0  0
    8.4038   -1.7275   20.4862 H   0  0  0  0  0  0  0  0  0  0  0  0
    7.2389   -1.1747   21.7368 H   0  0  0  0  0  0  0  0  0  0  0  0
    6.2684    0.5854   22.3952 H   0  0  0  0  0  0  0  0  0  0  0  0
    4.4402    2.1110   22.9050 H   0  0  0  0  0  0  0  0  0  0  0  0
    3.1726    3.1945   21.0987 H   0  0  0  0  0  0  0  0  0  0  0  0
    3.7130    2.7528   18.7664 H   0  0  0  0  0  0  0  0  0  0  0  0
    5.1407    1.5528   17.0757 H   0  0  0  0  0  0  0  0  0  0  0  0
    8.2239   -0.9262   18.2674 H   0  0  0  0  0  0  0  0  0  0  0  0
   10.3799    1.3853   23.1695 H   0  0  0  0  0  0  0  0  0  0  0  0
   10.4616    0.1347   24.4564 H   0  0  0  0  0  0  0  0  0  0  0  0
   15.5052    0.1696   22.7930 H   0  0  0  0  0  0  0  0  0  0  0  0
   14.4165   -1.4821   21.1832 H   0  0  0  0  0  0  0  0  0  0  0  0
   11.8047   -1.5304   21.4331 H   0  0  0  0  0  0  0  0  0  0  0  0
    9.1287   -2.5003   22.2804 H   0  0  0  0  0  0  0  0  0  0  0  0
   10.4860   -2.2626   23.4327 H   0  0  0  0  0  0  0  0  0  0  0  0
    8.8325   -1.2651   25.0552 H   0  0  0  0  0  0  0  0  0  0  0  0
    7.5206   -1.7348   23.9216 H   0  0  0  0  0  0  0  0  0  0  0  0
    8.4300   -4.1048   24.0297 H   0  0  0  0  0  0  0  0  0  0  0  0
   10.6667   -3.6338   24.8666 H   0  0  0  0  0  0  0  0  0  0  0  0
    9.9844   -2.9601   26.3854 H   0  0  0  0  0  0  0  0  0  0  0  0
    9.8045   -5.8494   25.4082 H   0  0  0  0  0  0  0  0  0  0  0  0
   10.7797   -5.2284   26.7829 H   0  0  0  0  0  0  0  0  0  0  0  0
    8.6567   -6.3441   27.4994 H   0  0  0  0  0  0  0  0  0  0  0  0
    8.7587   -4.6233   28.0046 H   0  0  0  0  0  0  0  0  0  0  0  0
    7.2161   -5.7548   25.6237 H   0  0  0  0  0  0  0  0  0  0  0  0
    6.5257   -5.0908   27.1432 H   0  0  0  0  0  0  0  0  0  0  0  0
    6.4173   -3.4730   25.2524 H   0  0  0  0  0  0  0  0  0  0  0  0
    7.4107   -2.8727   26.6233 H   0  0  0  0  0  0  0  0  0  0  0  0
  1  2  2  0
  2  3  1  0
  2 14  1  0
  3  4  1  0
  3 29  1  6
  3 30  1  0
  4  5  2  0
  4 13  1  0
  5  6  1  0
  5 10  1  0
  6  7  2  0
  6 31  1  0
  7  8  1  0
  7 32  1  0
  8  9  2  0
  8 33  1  0
  9 10  1  0
  9 34  1  0
 10 11  2  0
 11 12  1  0
 11 35  1  0
 12 13  2  0
 13 36  1  0
 14 15  1  0
 14 21  1  0
 15 16  1  0
 15 37  1  1
 15 38  1  0
 16 17  1  0
 16 20  2  0
 17 18  1  0
 18 19  2  0
 18 39  1  0
 19 20  1  0
 19 40  1  0
 20 41  1  0
 21 22  1  0
 21 42  1  6
 21 43  1  0
 22 23  1  0
 22 44  1  1
 22 45  1  0
 23 24  1  0
 23 28  1  0
 23 46  1  6
 24 25  1  0
 24 47  1  6
 24 48  1  0
 25 26  1  0
 25 49  1  6
 25 50  1  0
 26 27  1  0
 26 51  1  1
 26 52  1  0
 27 28  1  0
 27 53  1  6
 27 54  1  0
 28 55  1  6
 28 56  1  0
M  END
$$$$
