LIG(A-305)
     RDKit          3D

 44 46  0  0  0  0  0  0  0  0999 V2000
    8.7897    1.0007   20.8531 O   0  0  0  0  0  0  0  0  0  0  0  0
    8.2958   -0.0213   21.3062 C   0  0  0  0  0  0  0  0  0  0  0  0
    7.1538   -0.5604   20.8293 N   0  0  0  0  0  0  0  0  0  0  0  0
    6.4337    0.0175   19.7513 C   0  0  0  0  0  0  0  0  0  0  0  0
    5.2987    0.7985   20.0213 C   0  0  0  0  0  0  0  0  0  0  0  0
    4.7767    0.9865   21.4233 C   0  0  1  0  0  0  0  0  0  0  0  0
    4.6936    1.4404   18.9463 C   0  0  0  0  0  0  0  0  0  0  0  0
    5.2275    1.3013   17.6773 C   0  0  0  0  0  0  0  0  0  0  0  0
    6.3086    0.5594   17.4072 N   0  0  0  0  0  0  0  0  0  0  0  0
    6.8856   -0.0765   18.4333 C   0  0  0  0  0  0  0  0  0  0  0  0
    8.9379   -0.7592   22.4642 C   0  0  1  0  0  0  0  0  0  0  0  0
   10.3308   -0.2431   22.7621 C   0  0  0  0  0  0  0  0  0  0  0  0
   11.4299   -1.0840   22.6431 C   0  0  0  0  0  0  0  0  0  0  0  0
   12.6949   -0.5809   22.8670 C   0  0  0  0  0  0  0  0  0  0  0  0
   14.0499   -1.6738   22.8580 Cl  0  0  0  0  0  0  0  0  0  0  0  0
   12.9098    0.7461   23.1829 C   0  0  0  0  0  0  0  0  0  0  0  0
   10.5368    1.0860   23.1170 C   0  0  0  0  0  0  0  0  0  0  0  0
   11.8168    1.6041   23.3209 C   0  0  0  0  0  0  0  0  0  0  0  0
   12.0197    3.0311   23.7018 C   0  0  0  0  0  0  0  0  0  0  0  0
   13.1536    3.7031   23.2438 C   0  0  0  0  0  0  0  0  0  0  0  0
   13.4256    5.0012   23.6467 C   0  0  0  0  0  0  0  0  0  0  0  0
   11.1787    3.7451   24.5478 C   0  0  0  0  0  0  0  0  0  0  0  0
   10.0927    3.1431   25.0599 F   0  0  0  0  0  0  0  0  0  0  0  0
   11.4476    5.0391   24.9298 C   0  0  0  0  0  0  0  0  0  0  0  0
   10.5786    5.6771   25.7378 F   0  0  0  0  0  0  0  0  0  0  0  0
   12.5876    5.6982   24.5217 C   0  0  0  0  0  0  0  0  0  0  0  0
   12.9855    7.0502   25.0546 C   0  0  1  0  0  0  0  0  0  0  0  0
    6.8026   -1.3967   21.2504 H   0  0  0  0  0  0  0  0  0  0  0  0
    5.5532    1.4575   22.0441 H   0  0  0  0  0  0  0  0  0  0  0  0
    3.8857    1.6311   21.3993 H   0  0  0  0  0  0  0  0  0  0  0  0
    4.5101    0.0081   21.8495 H   0  0  0  0  0  0  0  0  0  0  0  0
    3.8116    2.0442   19.1010 H   0  0  0  0  0  0  0  0  0  0  0  0
    4.7463    1.8193   16.8608 H   0  0  0  0  0  0  0  0  0  0  0  0
    7.7472   -0.6958   18.2314 H   0  0  0  0  0  0  0  0  0  0  0  0
    8.3118   -0.6292   23.3593 H   0  0  0  0  0  0  0  0  0  0  0  0
    9.0011   -1.8283   22.2131 H   0  0  0  0  0  0  0  0  0  0  0  0
   11.2954   -2.1222   22.3777 H   0  0  0  0  0  0  0  0  0  0  0  0
   13.9145    1.1172   23.3221 H   0  0  0  0  0  0  0  0  0  0  0  0
    9.6824    1.7353   23.2382 H   0  0  0  0  0  0  0  0  0  0  0  0
   13.8295    3.2043   22.5651 H   0  0  0  0  0  0  0  0  0  0  0  0
   14.3132    5.4896   23.2726 H   0  0  0  0  0  0  0  0  0  0  0  0
   13.1228    7.7493   24.2165 H   0  0  0  0  0  0  0  0  0  0  0  0
   12.1966    7.4280   25.7216 H   0  0  0  0  0  0  0  0  0  0  0  0
   13.9277    6.9605   25.6151 H   0  0  0  0  0  0  0  0  0  0  0  0
  1  2  2  0
  2  3  1  0
  2 11  1  0
  3  4  1  0
  3 28  1  0
  4  5  2  0
  4 10  1  0
  5  6  1  0
  5  7  1  0
  6 29  1  1
  6 30  1  0
  6 31  1  0
  7  8  2  0
  7 32  1  0
  8  9  1  0
  8 33  1  0
  9 10  2  0
 10 34  1  0
 11 12  1  0
 11 35  1  1
 11 36  1  0
 12 13  2  0
 12 17  1  0
 13 14  1  0
 13 37  1  0
 14 15  1  0
 14 16  2  0
 16 18  1  0
 16 38  1  0
 17 18  2  0
 17 39  1  0
 18 19  1  0
 19 20  2  0
 19 22  1  0
 20 21  1  0
 20 40  1  0
 21 26  2  0
 21 41  1  0
 22 23  1  0
 22 24  2  0
 24 25  1  0
 24 26  1  0
 26 27  1  0
 27 42  1  6
 27 43  1  0
 27 44  1  0
M  END
$$$$
