LIG(A-305)
     RDKit          3D

 34 35  0  0  0  0  0  0  0  0999 V2000
   13.2084   -1.6953   22.0270 F   0  0  0  0  0  0  0  0  0  0  0  0
   13.0325   -1.6662   23.3690 C   0  0  0  0  0  0  0  0  0  0  0  0
   13.8445   -2.4492   24.1569 C   0  0  0  0  0  0  0  0  0  0  0  0
   13.6936   -2.3812   25.5320 C   0  0  0  0  0  0  0  0  0  0  0  0
   12.7597   -1.5291   26.0830 C   0  0  0  0  0  0  0  0  0  0  0  0
   11.9497   -0.7541   25.2620 C   0  0  0  0  0  0  0  0  0  0  0  0
   12.0586   -0.8261   23.8730 C   0  0  0  0  0  0  0  0  0  0  0  0
   11.1106   -0.0281   23.0021 C   0  0  1  0  0  0  0  0  0  0  0  0
    9.9635   -0.8640   22.3882 C   0  0  1  0  0  0  0  0  0  0  0  0
    9.1154   -0.0540   21.4333 C   0  0  0  0  0  0  0  0  0  0  0  0
    9.4595    1.0609   21.0532 O   0  0  0  0  0  0  0  0  0  0  0  0
    7.9814   -0.6520   21.0214 N   0  0  0  0  0  0  0  0  0  0  0  0
    7.1363   -0.0769   20.0304 C   0  0  0  0  0  0  0  0  0  0  0  0
    5.9454    0.5812   20.4115 C   0  0  0  0  0  0  0  0  0  0  0  0
    5.5575    0.7543   21.8585 C   0  0  1  0  0  0  0  0  0  0  0  0
    7.4652   -0.1110   18.6744 C   0  0  0  0  0  0  0  0  0  0  0  0
    6.7112    0.4340   17.7124 N   0  0  0  0  0  0  0  0  0  0  0  0
    5.5752    1.0301   18.0875 C   0  0  0  0  0  0  0  0  0  0  0  0
    5.1604    1.1262   19.3996 C   0  0  0  0  0  0  0  0  0  0  0  0
   14.5822   -3.1016   23.7135 H   0  0  0  0  0  0  0  0  0  0  0  0
   14.3078   -2.9959   26.1732 H   0  0  0  0  0  0  0  0  0  0  0  0
   12.6576   -1.4639   27.1562 H   0  0  0  0  0  0  0  0  0  0  0  0
   11.2257   -0.0865   25.7055 H   0  0  0  0  0  0  0  0  0  0  0  0
   10.6667    0.7700   23.6154 H   0  0  0  0  0  0  0  0  0  0  0  0
   11.6896    0.4196   22.1810 H   0  0  0  0  0  0  0  0  0  0  0  0
   10.3977   -1.7147   21.8424 H   0  0  0  0  0  0  0  0  0  0  0  0
    9.3233   -1.2380   23.2008 H   0  0  0  0  0  0  0  0  0  0  0  0
    7.7240   -1.5298   21.4253 H   0  0  0  0  0  0  0  0  0  0  0  0
    6.3350    1.3313   22.3806 H   0  0  0  0  0  0  0  0  0  0  0  0
    4.5994    1.2912   21.9195 H   0  0  0  0  0  0  0  0  0  0  0  0
    5.4549   -0.2337   22.3312 H   0  0  0  0  0  0  0  0  0  0  0  0
    8.3806   -0.6055   18.3848 H   0  0  0  0  0  0  0  0  0  0  0  0
    4.9476    1.4603   17.3212 H   0  0  0  0  0  0  0  0  0  0  0  0
    4.2314    1.6217   19.6403 H   0  0  0  0  0  0  0  0  0  0  0  0
  1  2  1  0
  2  3  2  0
  2  7  1  0
  3  4  1  0
  3 20  1  0
  4  5  2  0
  4 21  1  0
  5  6  1  0
  5 22  1  0
  6  7  2  0
  6 23  1  0
  7  8  1  0
  8  9  1  0
  8 24  1  1
  8 25  1  0
  9 10  1  0
  9 26  1  6
  9 27  1  0
 10 11  2  0
 10 12  1  0
 12 13  1  0
 12 28  1  0
 13 14  2  0
 13 16  1  0
 14 15  1  0
 14 19  1  0
 15 29  1  1
 15 30  1  0
 15 31  1  0
 16 17  2  0
 16 32  1  0
 17 18  1  0
 18 19  2  0
 18 33  1  0
 19 34  1  0
M  END
$$$$
