LIG(A-306)
     RDKit          3D

 41 43  0  0  0  0  0  0  0  0999 V2000
   14.0813   -1.2835   21.5491 Cl  0  0  0  0  0  0  0  0  0  0  0  0
   12.7292   -0.7745   22.5230 C   0  0  0  0  0  0  0  0  0  0  0  0
   12.9372    0.1266   23.5500 C   0  0  0  0  0  0  0  0  0  0  0  0
   11.8611    0.4836   24.3479 C   0  0  0  0  0  0  0  0  0  0  0  0
   10.5981   -0.0275   24.0859 C   0  0  0  0  0  0  0  0  0  0  0  0
   11.4783   -1.2925   22.2530 C   0  0  0  0  0  0  0  0  0  0  0  0
   10.3872   -0.8936   23.0209 C   0  0  0  0  0  0  0  0  0  0  0  0
    8.9873   -1.2966   22.6159 C   0  0  1  0  0  0  0  0  0  0  0  0
    8.4123   -0.3587   21.5708 C   0  0  0  0  0  0  0  0  0  0  0  0
    8.9182    0.7383   21.3408 O   0  0  0  0  0  0  0  0  0  0  0  0
    7.3293   -0.8358   20.9178 N   0  0  0  0  0  0  0  0  0  0  0  0
    6.6374   -0.2449   19.8417 C   0  0  0  0  0  0  0  0  0  0  0  0
    7.0324   -0.3509   18.5067 C   0  0  0  0  0  0  0  0  0  0  0  0
    6.4515    0.2850   17.4797 N   0  0  0  0  0  0  0  0  0  0  0  0
    5.4224    1.0750   17.7526 C   0  0  0  0  0  0  0  0  0  0  0  0
    5.5193    0.5951   20.1346 C   0  0  0  0  0  0  0  0  0  0  0  0
    4.9023    1.2860   19.0535 C   0  0  0  0  0  0  0  0  0  0  0  0
    3.8223    2.1580   19.3264 C   0  0  0  0  0  0  0  0  0  0  0  0
    3.3662    2.3240   20.5994 C   0  0  0  0  0  0  0  0  0  0  0  0
    5.0012    0.7861   21.4406 C   0  0  0  0  0  0  0  0  0  0  0  0
    3.9312    1.6271   21.6665 C   0  0  0  0  0  0  0  0  0  0  0  0
    3.3211    1.7661   22.9394 N   0  0  0  0  0  0  0  0  0  0  0  0
    3.6731    1.1972   24.1255 C   0  0  0  0  0  0  0  0  0  0  0  0
    4.7671    0.6703   24.3225 O   0  0  0  0  0  0  0  0  0  0  0  0
    2.6060    1.2262   25.1824 C   0  0  1  0  0  0  0  0  0  0  0  0
   13.9173    0.5439   23.7272 H   0  0  0  0  0  0  0  0  0  0  0  0
   12.0064    1.1615   25.1760 H   0  0  0  0  0  0  0  0  0  0  0  0
    9.7684    0.2518   24.7182 H   0  0  0  0  0  0  0  0  0  0  0  0
   11.3467   -2.0033   21.4506 H   0  0  0  0  0  0  0  0  0  0  0  0
    9.0153   -2.3159   22.2030 H   0  0  0  0  0  0  0  0  0  0  0  0
    8.3400   -1.2789   23.5051 H   0  0  0  0  0  0  0  0  0  0  0  0
    6.9762   -1.7152   21.2371 H   0  0  0  0  0  0  0  0  0  0  0  0
    7.8706   -0.9948   18.2845 H   0  0  0  0  0  0  0  0  0  0  0  0
    4.9499    1.5911   16.9299 H   0  0  0  0  0  0  0  0  0  0  0  0
    3.3541    2.6980   18.5167 H   0  0  0  0  0  0  0  0  0  0  0  0
    2.5517    3.0084   20.7854 H   0  0  0  0  0  0  0  0  0  0  0  0
    5.4517    0.2647   22.2722 H   0  0  0  0  0  0  0  0  0  0  0  0
    2.5212    2.3654   22.9702 H   0  0  0  0  0  0  0  0  0  0  0  0
    2.9734    0.7230   26.0890 H   0  0  0  0  0  0  0  0  0  0  0  0
    2.3533    2.2702   25.4195 H   0  0  0  0  0  0  0  0  0  0  0  0
    1.7097    0.7068   24.8126 H   0  0  0  0  0  0  0  0  0  0  0  0
  1  2  1  0
  2  3  2  0
  2  6  1  0
  3  4  1  0
  3 26  1  0
  4  5  2  0
  4 27  1  0
  5  7  1  0
  5 28  1  0
  6  7  2  0
  6 29  1  0
  7  8  1  0
  8  9  1  0
  8 30  1  6
  8 31  1  0
  9 10  2  0
  9 11  1  0
 11 12  1  0
 11 32  1  0
 12 13  2  0
 12 16  1  0
 13 14  1  0
 13 33  1  0
 14 15  2  0
 15 17  1  0
 15 34  1  0
 16 17  2  0
 16 20  1  0
 17 18  1  0
 18 19  2  0
 18 35  1  0
 19 21  1  0
 19 36  1  0
 20 21  2  0
 20 37  1  0
 21 22  1  0
 22 23  1  0
 22 38  1  0
 23 24  2  0
 23 25  1  0
 25 39  1  1
 25 40  1  0
 25 41  1  0
M  END
$$$$
