LIG(A-305)
     RDKit          3D

 36 38  0  0  1  0  0  0  0  0999 V2000
    5.1462    0.9045   21.2882 N   0  0  0  0  0  0  0  0  0  0  0  0
    7.5909   -0.4250   20.8689 N   0  0  0  0  0  0  0  0  0  0  0  0
    3.8873    1.1897   21.7255 C   0  0  0  0  0  0  0  0  0  0  0  0
   12.2307    0.8593   23.8209 C   0  0  0  0  0  0  0  0  0  0  0  0
    9.0522    1.3137   20.9845 O   0  0  0  0  0  0  0  0  0  0  0  0
    9.2162   -0.4202   22.6646 C   0  0  1  0  0  0  0  0  0  0  0  0
    5.6349    0.7373   19.9672 C   0  0  0  0  0  0  0  0  0  0  0  0
    6.8388    0.0420   19.7670 C   0  0  0  0  0  0  0  0  0  0  0  0
    7.3275   -0.0712   18.4689 C   0  0  0  0  0  0  0  0  0  0  0  0
    5.5786    1.1491   17.6271 C   0  0  0  0  0  0  0  0  0  0  0  0
   10.9385    0.4155   23.5612 C   0  0  0  0  0  0  0  0  0  0  0  0
   13.0411   -0.6559   22.1769 C   0  0  0  0  0  0  0  0  0  0  0  0
   14.0919   -1.2342   21.5387 F   0  0  0  0  0  0  0  0  0  0  0  0
    9.4596    0.5278   23.8925 C   0  0  2  0  0  0  0  0  0  0  0  0
   13.2984    0.3331   23.1097 C   0  0  0  0  0  0  0  0  0  0  0  0
   11.7749   -1.1187   21.8911 C   0  0  0  0  0  0  0  0  0  0  0  0
    3.7326    1.2429   23.2175 C   0  0  1  0  0  0  0  0  0  0  0  0
    6.7204    0.4779   17.4120 N   0  0  0  0  0  0  0  0  0  0  0  0
    2.9362    1.3878   20.9656 O   0  0  0  0  0  0  0  0  0  0  0  0
    8.6241    0.2468   21.4236 C   0  0  0  0  0  0  0  0  0  0  0  0
    4.9898    1.2993   18.8682 C   0  0  0  0  0  0  0  0  0  0  0  0
   10.7332   -0.5325   22.6003 C   0  0  0  0  0  0  0  0  0  0  0  0
    5.8304    0.7964   22.0095 H   0  0  0  0  0  0  0  0  0  0  0  0
    7.3425   -1.3097   21.2635 H   0  0  0  0  0  0  0  0  0  0  0  0
   12.4023    1.6128   24.5754 H   0  0  0  0  0  0  0  0  0  0  0  0
    8.7149   -1.3594   22.9411 H   0  0  0  0  0  0  0  0  0  0  0  0
    8.2389   -0.6279   18.3081 H   0  0  0  0  0  0  0  0  0  0  0  0
    5.0889    1.6003   16.7768 H   0  0  0  0  0  0  0  0  0  0  0  0
    9.1699    0.1076   24.8668 H   0  0  0  0  0  0  0  0  0  0  0  0
    9.0370    1.5381   23.7887 H   0  0  0  0  0  0  0  0  0  0  0  0
   14.3049    0.6860   23.2796 H   0  0  0  0  0  0  0  0  0  0  0  0
   11.6020   -1.8928   21.1580 H   0  0  0  0  0  0  0  0  0  0  0  0
    2.6874    1.4747   23.4703 H   0  0  0  0  0  0  0  0  0  0  0  0
    4.0068    0.2690   23.6493 H   0  0  0  0  0  0  0  0  0  0  0  0
    4.3906    2.0238   23.6266 H   0  0  0  0  0  0  0  0  0  0  0  0
    4.0592    1.8354   18.9824 H   0  0  0  0  0  0  0  0  0  0  0  0
  1  3  1  0
  1  7  1  0
  1 23  1  0
  2  8  1  0
  2 20  1  0
  2 24  1  0
  3 17  1  0
  3 19  2  0
  4 11  2  0
  4 15  1  0
  4 25  1  0
  5 20  2  0
  6 14  1  0
  6 20  1  0
  6 22  1  0
  6 26  1  1
  7  8  2  0
  7 21  1  0
  8  9  1  0
  9 18  2  0
  9 27  1  0
 10 18  1  0
 10 21  2  0
 10 28  1  0
 11 14  1  0
 11 22  1  0
 12 13  1  0
 12 15  2  0
 12 16  1  0
 14 29  1  1
 14 30  1  0
 15 31  1  0
 16 22  2  0
 16 32  1  0
 17 33  1  6
 17 34  1  0
 17 35  1  0
 21 36  1  0
M  END
$$$$
