LIG(A-305)
     RDKit          3D

 35 37  0  0  0  0  0  0  0  0999 V2000
    9.2266    1.1097   21.0442 O   0  0  0  0  0  0  0  0  0  0  0  0
    8.6697    0.1397   21.5383 C   0  0  0  0  0  0  0  0  0  0  0  0
    9.1728   -0.5172   22.7993 C   0  0  2  0  0  0  0  0  0  0  0  0
   10.4099    0.1339   23.4722 C   0  0  1  0  0  0  0  0  0  0  0  0
   11.2688   -0.8590   22.6661 C   0  0  1  0  0  0  0  0  0  0  0  0
   12.3980   -1.3699   23.4080 C   0  0  2  0  0  0  0  0  0  0  0  0
   13.5949   -0.4959   23.6169 C   0  0  1  0  0  0  0  0  0  0  0  0
   13.6889   -1.6829   22.7179 C   0  0  1  0  0  0  0  0  0  0  0  0
   10.0399   -1.7901   22.6193 C   0  0  2  0  0  0  0  0  0  0  0  0
    7.5527   -0.4144   21.0315 N   0  0  0  0  0  0  0  0  0  0  0  0
    6.8225    0.1165   19.9525 C   0  0  0  0  0  0  0  0  0  0  0  0
    5.6275    0.8155   20.2026 C   0  0  0  0  0  0  0  0  0  0  0  0
    5.1236    1.0615   21.6016 C   0  0  1  0  0  0  0  0  0  0  0  0
    7.2794    0.0065   18.6385 C   0  0  0  0  0  0  0  0  0  0  0  0
    6.6433    0.5504   17.5965 N   0  0  0  0  0  0  0  0  0  0  0  0
    5.4993    1.1954   17.8406 C   0  0  0  0  0  0  0  0  0  0  0  0
    4.9574    1.3414   19.1046 C   0  0  0  0  0  0  0  0  0  0  0  0
    8.3643   -0.6840   23.5263 H   0  0  0  0  0  0  0  0  0  0  0  0
   10.5688    1.1923   23.2183 H   0  0  0  0  0  0  0  0  0  0  0  0
   10.4609    0.0070   24.5637 H   0  0  0  0  0  0  0  0  0  0  0  0
   11.5319   -0.4689   21.6719 H   0  0  0  0  0  0  0  0  0  0  0  0
   12.1552   -2.0298   24.2540 H   0  0  0  0  0  0  0  0  0  0  0  0
   13.6157    0.5185   23.1919 H   0  0  0  0  0  0  0  0  0  0  0  0
   14.1147   -0.4980   24.5863 H   0  0  0  0  0  0  0  0  0  0  0  0
   14.2779   -2.5598   23.0250 H   0  0  0  0  0  0  0  0  0  0  0  0
   13.7789   -1.5433   21.6305 H   0  0  0  0  0  0  0  0  0  0  0  0
    9.8953   -2.3149   21.6634 H   0  0  0  0  0  0  0  0  0  0  0  0
    9.9765   -2.5118   23.4470 H   0  0  0  0  0  0  0  0  0  0  0  0
    7.2197   -1.2595   21.4496 H   0  0  0  0  0  0  0  0  0  0  0  0
    5.8696    1.6427   22.1636 H   0  0  0  0  0  0  0  0  0  0  0  0
    4.1788    1.6232   21.5575 H   0  0  0  0  0  0  0  0  0  0  0  0
    4.9544    0.0982   22.1050 H   0  0  0  0  0  0  0  0  0  0  0  0
    8.1901   -0.5443   18.4549 H   0  0  0  0  0  0  0  0  0  0  0  0
    4.9682    1.6265   17.0048 H   0  0  0  0  0  0  0  0  0  0  0  0
    4.0198    1.8606   19.2375 H   0  0  0  0  0  0  0  0  0  0  0  0
  1  2  2  0
  2  3  1  0
  2 10  1  0
  3  4  1  0
  3  9  1  0
  3 18  1  1
  4  5  1  0
  4 19  1  1
  4 20  1  0
  5  6  1  0
  5  9  1  0
  5 21  1  6
  6  7  1  0
  6  8  1  0
  6 22  1  1
  7  8  1  0
  7 23  1  6
  7 24  1  0
  8 25  1  1
  8 26  1  0
  9 27  1  6
  9 28  1  0
 10 11  1  0
 10 29  1  0
 11 12  2  0
 11 14  1  0
 12 13  1  0
 12 17  1  0
 13 30  1  1
 13 31  1  0
 13 32  1  0
 14 15  2  0
 14 33  1  0
 15 16  1  0
 16 17  2  0
 16 34  1  0
 17 35  1  0
M  END
$$$$
