LIG(A-305)
     RDKit          3D

 36 37  0  0  0  0  0  0  0  0999 V2000
    6.7922   -2.1534   24.1531 N   0  0  0  0  0  0  0  0  0  0  0  0
    1.3512   -2.5003   27.7632 C   0  0  1  0  0  0  0  0  0  0  0  0
    7.6432   -1.8603   26.2211 O   0  0  0  0  0  0  0  0  0  0  0  0
    2.7342   -2.3923   27.1842 C   0  0  0  0  0  0  0  0  0  0  0  0
    6.2492   -3.8454   22.4812 C   0  0  1  0  0  0  0  0  0  0  0  0
    5.7302   -2.6834   23.2951 C   0  0  2  0  0  0  0  0  0  0  0  0
    7.4182   -3.4055   20.3452 C   0  0  0  0  0  0  0  0  0  0  0  0
    8.6992   -2.9395   19.7091 C   0  0  1  0  0  0  0  0  0  0  0  0
    3.7702   -3.1903   27.6392 C   0  0  0  0  0  0  0  0  0  0  0  0
    5.0442   -3.0903   27.1062 C   0  0  0  0  0  0  0  0  0  0  0  0
    5.3072   -2.1763   26.1001 C   0  0  0  0  0  0  0  0  0  0  0  0
    4.2782   -1.3784   25.6331 C   0  0  0  0  0  0  0  0  0  0  0  0
    3.0082   -1.4884   26.1721 C   0  0  0  0  0  0  0  0  0  0  0  0
    6.6762   -2.0563   25.4911 C   0  0  0  0  0  0  0  0  0  0  0  0
    7.9962   -1.7634   23.4191 C   0  0  1  0  0  0  0  0  0  0  0  0
    8.4792   -2.8914   22.5321 C   0  0  1  0  0  0  0  0  0  0  0  0
    7.3892   -3.3944   21.6922 N   0  0  0  0  0  0  0  0  0  0  0  0
    6.4622   -3.7535   19.6632 O   0  0  0  0  0  0  0  0  0  0  0  0
    1.3406   -3.2720   28.5471 H   0  0  0  0  0  0  0  0  0  0  0  0
    1.0590   -1.5328   28.1973 H   0  0  0  0  0  0  0  0  0  0  0  0
    0.6417   -2.7751   26.9687 H   0  0  0  0  0  0  0  0  0  0  0  0
    6.5631   -4.6571   23.1540 H   0  0  0  0  0  0  0  0  0  0  0  0
    5.4570   -4.2105   21.8110 H   0  0  0  0  0  0  0  0  0  0  0  0
    5.3819   -1.8910   22.6163 H   0  0  0  0  0  0  0  0  0  0  0  0
    4.8927   -3.0239   23.9218 H   0  0  0  0  0  0  0  0  0  0  0  0
    8.6000   -2.9758   18.6142 H   0  0  0  0  0  0  0  0  0  0  0  0
    8.9103   -1.9069   20.0240 H   0  0  0  0  0  0  0  0  0  0  0  0
    9.5245   -3.5949   20.0244 H   0  0  0  0  0  0  0  0  0  0  0  0
    3.5808   -3.9054   28.4260 H   0  0  0  0  0  0  0  0  0  0  0  0
    5.8346   -3.7267   27.4761 H   0  0  0  0  0  0  0  0  0  0  0  0
    4.4669   -0.6658   24.8438 H   0  0  0  0  0  0  0  0  0  0  0  0
    2.2164   -0.8574   25.7963 H   0  0  0  0  0  0  0  0  0  0  0  0
    7.7689   -0.8867   22.7948 H   0  0  0  0  0  0  0  0  0  0  0  0
    8.7883   -1.5062   24.1377 H   0  0  0  0  0  0  0  0  0  0  0  0
    9.2903   -2.5216   21.8876 H   0  0  0  0  0  0  0  0  0  0  0  0
    8.8562   -3.7101   23.1627 H   0  0  0  0  0  0  0  0  0  0  0  0
  1  6  1  0
  1 14  1  0
  1 15  1  0
  2  4  1  0
  2 19  1  1
  2 20  1  0
  2 21  1  0
  3 14  2  0
  4  9  2  0
  4 13  1  0
  5  6  1  0
  5 17  1  0
  5 22  1  1
  5 23  1  0
  6 24  1  6
  6 25  1  0
  7  8  1  0
  7 17  1  0
  7 18  2  0
  8 26  1  6
  8 27  1  0
  8 28  1  0
  9 10  1  0
  9 29  1  0
 10 11  2  0
 10 30  1  0
 11 12  1  0
 11 14  1  0
 12 13  2  0
 12 31  1  0
 13 32  1  0
 15 16  1  0
 15 33  1  6
 15 34  1  0
 16 17  1  0
 16 35  1  6
 16 36  1  0
M  END
$$$$
