LIG(A-306)
     RDKit          3D

 57 61  0  0  1  0  0  0  0  0999 V2000
    9.1028    6.0063   23.1834 N   0  0  0  0  0  0  0  0  0  0  0  0
    8.2030    5.3081   23.1484 C   0  0  0  0  0  0  0  0  0  0  0  0
    7.0282    4.4329   23.0424 C   0  0  2  0  0  0  0  0  0  0  0  0
    6.2100    4.8868   21.8035 C   0  0  1  0  0  0  0  0  0  0  0  0
    5.3199    5.7246   22.7165 C   0  0  1  0  0  0  0  0  0  0  0  0
    5.8311    4.9126   23.9085 C   0  0  2  0  0  0  0  0  0  0  0  0
    7.4605    2.9720   23.1363 C   0  0  1  0  0  0  0  0  0  0  0  0
    7.5607    2.1420   24.7133 S   0  0  2  0  0  0  0  0  0  0  0  0
    6.3148    1.4887   24.9673 O   0  0  0  0  0  0  0  0  0  0  0  0
    8.0665    3.0700   25.6753 O   0  0  0  0  0  0  0  0  0  0  0  0
    8.6799    0.9782   24.5302 N   0  0  0  0  0  0  0  0  0  0  0  0
   10.0729    1.2495   24.9062 C   0  0  1  0  0  0  0  0  0  0  0  0
    8.3732   -0.4249   24.2002 C   0  0  1  0  0  0  0  0  0  0  0  0
    9.1452   -0.7997   22.9341 C   0  0  2  0  0  0  0  0  0  0  0  0
   10.6172   -0.4564   23.0831 C   0  0  0  0  0  0  0  0  0  0  0  0
   11.0240    0.5797   23.9401 C   0  0  0  0  0  0  0  0  0  0  0  0
   12.3599    0.9780   23.9371 C   0  0  0  0  0  0  0  0  0  0  0  0
   13.2890    0.3552   23.1260 C   0  0  0  0  0  0  0  0  0  0  0  0
   11.5683   -1.1101   22.2990 C   0  0  0  0  0  0  0  0  0  0  0  0
   12.8852   -0.6939   22.3330 C   0  0  0  0  0  0  0  0  0  0  0  0
   14.0653   -1.5296   21.3619 Cl  0  0  0  0  0  0  0  0  0  0  0  0
    8.5880   -0.0617   21.7142 C   0  0  0  0  0  0  0  0  0  0  0  0
    9.1448    0.9294   21.2382 O   0  0  0  0  0  0  0  0  0  0  0  0
    7.4361   -0.5759   21.2132 N   0  0  0  0  0  0  0  0  0  0  0  0
    6.7000   -0.1051   20.1013 C   0  0  0  0  0  0  0  0  0  0  0  0
    5.5338    0.6967   20.3313 C   0  0  0  0  0  0  0  0  0  0  0  0
    4.9628    0.9125   21.6124 C   0  0  0  0  0  0  0  0  0  0  0  0
    3.8647    1.7103   21.7674 C   0  0  0  0  0  0  0  0  0  0  0  0
    3.2865    2.3402   20.6725 C   0  0  0  0  0  0  0  0  0  0  0  0
    3.7875    2.1494   19.4165 C   0  0  0  0  0  0  0  0  0  0  0  0
    4.9136    1.3146   19.2084 C   0  0  0  0  0  0  0  0  0  0  0  0
    5.4576    1.0518   17.9264 C   0  0  0  0  0  0  0  0  0  0  0  0
    6.5138    0.2790   17.7093 N   0  0  0  0  0  0  0  0  0  0  0  0
    7.1139   -0.2689   18.7772 C   0  0  0  0  0  0  0  0  0  0  0  0
    6.7860    5.4734   21.0727 H   0  0  0  0  0  0  0  0  0  0  0  0
    5.6846    4.0706   21.2861 H   0  0  0  0  0  0  0  0  0  0  0  0
    5.5815    6.7925   22.7496 H   0  0  0  0  0  0  0  0  0  0  0  0
    4.2424    5.6168   22.5230 H   0  0  0  0  0  0  0  0  0  0  0  0
    6.1181    5.5202   24.7794 H   0  0  0  0  0  0  0  0  0  0  0  0
    5.1546    4.1072   24.2302 H   0  0  0  0  0  0  0  0  0  0  0  0
    6.7507    2.3960   22.5244 H   0  0  0  0  0  0  0  0  0  0  0  0
    8.4631    2.9132   22.6878 H   0  0  0  0  0  0  0  0  0  0  0  0
   10.2468    2.3355   24.8905 H   0  0  0  0  0  0  0  0  0  0  0  0
   10.2557    0.8635   25.9198 H   0  0  0  0  0  0  0  0  0  0  0  0
    8.6803   -1.0780   25.0302 H   0  0  0  0  0  0  0  0  0  0  0  0
    7.2932   -0.5383   24.0246 H   0  0  0  0  0  0  0  0  0  0  0  0
    9.0470   -1.8825   22.7675 H   0  0  0  0  0  0  0  0  0  0  0  0
   12.6740    1.7872   24.5797 H   0  0  0  0  0  0  0  0  0  0  0  0
   14.3167    0.6869   23.1148 H   0  0  0  0  0  0  0  0  0  0  0  0
   11.2765   -1.9373   21.6689 H   0  0  0  0  0  0  0  0  0  0  0  0
    7.0665   -1.3776   21.6830 H   0  0  0  0  0  0  0  0  0  0  0  0
    5.4029    0.4391   22.4776 H   0  0  0  0  0  0  0  0  0  0  0  0
    3.4419    1.8527   22.7510 H   0  0  0  0  0  0  0  0  0  0  0  0
    2.4333    2.9867   20.8159 H   0  0  0  0  0  0  0  0  0  0  0  0
    3.3212    2.6390   18.5742 H   0  0  0  0  0  0  0  0  0  0  0  0
    4.9820    1.5098   17.0717 H   0  0  0  0  0  0  0  0  0  0  0  0
    7.9838   -0.8838   18.5994 H   0  0  0  0  0  0  0  0  0  0  0  0
  1  2  3  0
  3  2  1  1
  3  4  1  0
  3  6  1  0
  3  7  1  0
  4  5  1  0
  4 35  1  6
  4 36  1  0
  5  6  1  0
  5 37  1  1
  5 38  1  0
  6 39  1  1
  6 40  1  0
  7  8  1  0
  7 41  1  6
  7 42  1  0
  8  9  2  0
  8 10  2  0
  8 11  1  6
 11 12  1  0
 11 13  1  0
 12 16  1  0
 12 43  1  1
 12 44  1  0
 13 14  1  0
 13 45  1  1
 13 46  1  0
 14 15  1  0
 14 22  1  0
 14 47  1  6
 15 16  2  0
 15 19  1  0
 16 17  1  0
 17 18  2  0
 17 48  1  0
 18 20  1  0
 18 49  1  0
 19 20  2  0
 19 50  1  0
 20 21  1  0
 22 23  2  0
 22 24  1  0
 24 25  1  0
 24 51  1  0
 25 26  2  0
 25 34  1  0
 26 27  1  0
 26 31  1  0
 27 28  2  0
 27 52  1  0
 28 29  1  0
 28 53  1  0
 29 30  2  0
 29 54  1  0
 30 31  1  0
 30 55  1  0
 31 32  2  0
 32 33  1  0
 32 56  1  0
 33 34  2  0
 34 57  1  0
M  END
$$$$
