LIG(A-305)
     RDKit          3D

 33 35  0  0  0  0  0  0  0  0999 V2000
    9.0387    0.8761   21.1141 O   0  0  0  0  0  0  0  0  0  0  0  0
    8.4487   -0.1439   21.4582 C   0  0  0  0  0  0  0  0  0  0  0  0
    8.9568   -1.0068   22.5962 C   0  0  1  0  0  0  0  0  0  0  0  0
   10.4308   -0.7617   22.8362 C   0  0  0  0  0  0  0  0  0  0  0  0
   10.8558    0.1563   23.7871 C   0  0  0  0  0  0  0  0  0  0  0  0
   12.1988    0.4764   23.9140 C   0  0  0  0  0  0  0  0  0  0  0  0
   13.1428   -0.1206   23.0930 C   0  0  0  0  0  0  0  0  0  0  0  0
   11.3828   -1.3818   22.0302 C   0  0  0  0  0  0  0  0  0  0  0  0
   12.7158   -1.0517   22.1671 C   0  0  0  0  0  0  0  0  0  0  0  0
   13.8928   -1.8677   21.1681 Cl  0  0  0  0  0  0  0  0  0  0  0  0
    7.4417   -0.6740   20.7633 N   0  0  0  0  0  0  0  0  0  0  0  0
    6.6067   -0.2071   19.7323 C   0  0  0  0  0  0  0  0  0  0  0  0
    5.5726    0.7158   20.0813 C   0  0  0  0  0  0  0  0  0  0  0  0
    5.1517    0.7519   21.3813 N   0  0  0  0  0  0  0  0  0  0  0  0
    4.0587    1.4559   21.6483 C   0  0  0  0  0  0  0  0  0  0  0  0
    3.3096    2.1338   20.6933 C   0  0  0  0  0  0  0  0  0  0  0  0
    3.7246    2.1167   19.3962 C   0  0  0  0  0  0  0  0  0  0  0  0
    4.9076    1.4227   19.0532 C   0  0  0  0  0  0  0  0  0  0  0  0
    5.3835    1.2397   17.7332 C   0  0  0  0  0  0  0  0  0  0  0  0
    6.4175    0.4707   17.4152 N   0  0  0  0  0  0  0  0  0  0  0  0
    6.9906   -0.2322   18.3973 C   0  0  0  0  0  0  0  0  0  0  0  0
    8.3968   -0.7642   23.5113 H   0  0  0  0  0  0  0  0  0  0  0  0
    8.8035   -2.0662   22.3425 H   0  0  0  0  0  0  0  0  0  0  0  0
   10.1316    0.6268   24.4356 H   0  0  0  0  0  0  0  0  0  0  0  0
   12.5114    1.1952   24.6569 H   0  0  0  0  0  0  0  0  0  0  0  0
   14.1885    0.1366   23.1757 H   0  0  0  0  0  0  0  0  0  0  0  0
   11.0789   -2.1180   21.3008 H   0  0  0  0  0  0  0  0  0  0  0  0
    7.2338   -1.6133   21.0361 H   0  0  0  0  0  0  0  0  0  0  0  0
    3.7293    1.5053   22.6757 H   0  0  0  0  0  0  0  0  0  0  0  0
    2.4129    2.6655   20.9755 H   0  0  0  0  0  0  0  0  0  0  0  0
    3.1543    2.6293   18.6356 H   0  0  0  0  0  0  0  0  0  0  0  0
    4.8736    1.7580   16.9347 H   0  0  0  0  0  0  0  0  0  0  0  0
    7.8194   -0.8716   18.1313 H   0  0  0  0  0  0  0  0  0  0  0  0
  1  2  2  0
  2  3  1  0
  2 11  1  0
  3  4  1  0
  3 22  1  1
  3 23  1  0
  4  5  2  0
  4  8  1  0
  5  6  1  0
  5 24  1  0
  6  7  2  0
  6 25  1  0
  7  9  1  0
  7 26  1  0
  8  9  2  0
  8 27  1  0
  9 10  1  0
 11 12  1  0
 11 28  1  0
 12 13  2  0
 12 21  1  0
 13 14  1  0
 13 18  1  0
 14 15  2  0
 15 16  1  0
 15 29  1  0
 16 17  2  0
 16 30  1  0
 17 18  1  0
 17 31  1  0
 18 19  2  0
 19 20  1  0
 19 32  1  0
 20 21  2  0
 21 33  1  0
M  END
$$$$
