LIG(A-306)
     RDKit          3D

 55 58  0  0  1  0  0  0  0  0999 V2000
   14.0538   -1.5887   21.4440 Cl  0  0  0  0  0  0  0  0  0  0  0  0
   12.8607   -0.8349   22.4712 C   0  0  0  0  0  0  0  0  0  0  0  0
   11.5318   -1.2071   22.3512 C   0  0  0  0  0  0  0  0  0  0  0  0
   13.2617    0.1131   23.3802 C   0  0  0  0  0  0  0  0  0  0  0  0
   12.3206    0.6829   24.2153 C   0  0  0  0  0  0  0  0  0  0  0  0
   10.9727    0.3427   24.1234 C   0  0  0  0  0  0  0  0  0  0  0  0
    9.9887    1.0386   25.0355 C   0  0  1  0  0  0  0  0  0  0  0  0
    8.6157    0.8304   24.5595 N   0  0  0  0  0  0  0  0  0  0  0  0
    7.4906    1.6842   25.3087 S   0  0  2  0  0  0  0  0  0  0  0  0
    7.7717    1.5842   26.6996 O   0  0  0  0  0  0  0  0  0  0  0  0
    6.2346    1.2671   24.7887 O   0  0  0  0  0  0  0  0  0  0  0  0
    7.7564    3.1943   24.8557 N   0  0  0  0  0  0  0  0  0  0  0  0
    8.2473    4.2843   25.7287 C   0  0  1  0  0  0  0  0  0  0  0  0
    7.1322    5.1141   26.3288 C   0  0  1  0  0  0  0  0  0  0  0  0
    7.4663    5.5331   27.6488 O   0  0  0  0  0  0  0  0  0  0  0  0
    7.4912    3.5773   23.4657 C   0  0  1  0  0  0  0  0  0  0  0  0
   10.5697   -0.6033   23.1653 C   0  0  0  0  0  0  0  0  0  0  0  0
    9.0948   -0.9264   22.9834 C   0  0  1  0  0  0  0  0  0  0  0  0
    8.3058   -0.5766   24.2465 C   0  0  1  0  0  0  0  0  0  0  0  0
    8.5586   -0.1284   21.7915 C   0  0  0  0  0  0  0  0  0  0  0  0
    9.1284    0.8796   21.3665 O   0  0  0  0  0  0  0  0  0  0  0  0
    7.4136   -0.6156   21.2445 N   0  0  0  0  0  0  0  0  0  0  0  0
    6.7125   -0.1146   20.1236 C   0  0  0  0  0  0  0  0  0  0  0  0
    5.5784    0.7342   20.3337 C   0  0  0  0  0  0  0  0  0  0  0  0
    5.0254    1.0111   21.6118 C   0  0  0  0  0  0  0  0  0  0  0  0
    3.9443    1.8370   21.7459 C   0  0  0  0  0  0  0  0  0  0  0  0
    3.3732    2.4439   20.6320 C   0  0  0  0  0  0  0  0  0  0  0  0
    3.8691    2.2101   19.3809 C   0  0  0  0  0  0  0  0  0  0  0  0
    4.9712    1.3382   19.1948 C   0  0  0  0  0  0  0  0  0  0  0  0
    5.5082    1.0314   17.9178 C   0  0  0  0  0  0  0  0  0  0  0  0
    6.5483    0.2325   17.7216 N   0  0  0  0  0  0  0  0  0  0  0  0
    7.1234   -0.3145   18.8036 C   0  0  0  0  0  0  0  0  0  0  0  0
   11.2409   -1.9593   21.6329 H   0  0  0  0  0  0  0  0  0  0  0  0
   14.2985    0.4090   23.4412 H   0  0  0  0  0  0  0  0  0  0  0  0
   12.6356    1.4057   24.9534 H   0  0  0  0  0  0  0  0  0  0  0  0
   10.0858    0.6305   26.0523 H   0  0  0  0  0  0  0  0  0  0  0  0
   10.2077    2.1164   25.0504 H   0  0  0  0  0  0  0  0  0  0  0  0
    8.8324    3.8402   26.5475 H   0  0  0  0  0  0  0  0  0  0  0  0
    8.8937    4.9455   25.1329 H   0  0  0  0  0  0  0  0  0  0  0  0
    6.9650    6.0015   25.7005 H   0  0  0  0  0  0  0  0  0  0  0  0
    6.2129    4.5111   26.3639 H   0  0  0  0  0  0  0  0  0  0  0  0
    7.0199    4.9803   28.2795 H   0  0  0  0  0  0  0  0  0  0  0  0
    7.7261    4.6431   23.3274 H   0  0  0  0  0  0  0  0  0  0  0  0
    8.1182    2.9735   22.7932 H   0  0  0  0  0  0  0  0  0  0  0  0
    6.4303    3.4026   23.2334 H   0  0  0  0  0  0  0  0  0  0  0  0
    8.9830   -2.0008   22.7758 H   0  0  0  0  0  0  0  0  0  0  0  0
    8.6132   -1.2272   25.0785 H   0  0  0  0  0  0  0  0  0  0  0  0
    7.2274   -0.6968   24.0661 H   0  0  0  0  0  0  0  0  0  0  0  0
    7.0213   -1.4223   21.6864 H   0  0  0  0  0  0  0  0  0  0  0  0
    5.4651    0.5629   22.4905 H   0  0  0  0  0  0  0  0  0  0  0  0
    3.5296    2.0200   22.7261 H   0  0  0  0  0  0  0  0  0  0  0  0
    2.5295    3.1064   20.7576 H   0  0  0  0  0  0  0  0  0  0  0  0
    3.4180    2.6933   18.5269 H   0  0  0  0  0  0  0  0  0  0  0  0
    5.0408    1.4760   17.0516 H   0  0  0  0  0  0  0  0  0  0  0  0
    7.9727   -0.9616   18.6407 H   0  0  0  0  0  0  0  0  0  0  0  0
  1  2  1  0
  2  3  2  0
  2  4  1  0
  3 17  1  0
  3 33  1  0
  4  5  2  0
  4 34  1  0
  5  6  1  0
  5 35  1  0
  6  7  1  0
  6 17  2  0
  7  8  1  0
  7 36  1  1
  7 37  1  0
  8  9  1  0
  8 19  1  0
  9 10  2  0
  9 11  2  0
  9 12  1  6
 12 13  1  0
 12 16  1  0
 13 14  1  0
 13 38  1  1
 13 39  1  0
 14 15  1  0
 14 40  1  6
 14 41  1  0
 15 42  1  0
 16 43  1  1
 16 44  1  0
 16 45  1  0
 17 18  1  0
 18 19  1  0
 18 20  1  0
 18 46  1  6
 19 47  1  1
 19 48  1  0
 20 21  2  0
 20 22  1  0
 22 23  1  0
 22 49  1  0
 23 24  2  0
 23 32  1  0
 24 25  1  0
 24 29  1  0
 25 26  2  0
 25 50  1  0
 26 27  1  0
 26 51  1  0
 27 28  2  0
 27 52  1  0
 28 29  1  0
 28 53  1  0
 29 30  2  0
 30 31  1  0
 30 54  1  0
 31 32  2  0
 32 55  1  0
M  END
$$$$
