LIG(A-306)
     RDKit          3D

 74 79  0  0  1  0  0  0  0  0999 V2000
  -10.0386    1.0040  -21.3570 O   0  0  0  0  0  0  0  0  0  0  0  0
   -9.5808   -0.0084  -21.8492 C   0  0  0  0  0  0  0  0  0  0  0  0
  -10.1494   -0.7598  -23.0590 C   0  0  1  0  0  0  0  0  0  0  0  0
  -11.6750   -0.6211  -23.0394 C   0  0  0  0  0  0  0  0  0  0  0  0
  -12.4338   -1.4232  -22.1861 C   0  0  0  0  0  0  0  0  0  0  0  0
  -13.7880   -1.1823  -22.0544 C   0  0  0  0  0  0  0  0  0  0  0  0
  -14.7169   -2.1629  -20.9516 Cl  0  0  0  0  0  0  0  0  0  0  0  0
  -14.4186   -0.1883  -22.7681 C   0  0  0  0  0  0  0  0  0  0  0  0
  -13.6779    0.5750  -23.6504 C   0  0  0  0  0  0  0  0  0  0  0  0
  -12.3066    0.3771  -23.7990 C   0  0  0  0  0  0  0  0  0  0  0  0
  -11.5439    1.2397  -24.7841 C   0  0  1  0  0  0  0  0  0  0  0  0
  -10.1054    1.2422  -24.4901 N   0  0  0  0  0  0  0  0  0  0  0  0
   -9.2054    2.5886  -24.6686 S   0  0  1  0  0  0  0  0  0  0  0  0
   -9.9643    3.5012  -25.4643 O   0  0  0  0  0  0  0  0  0  0  0  0
   -9.0264    3.2744  -23.0344 C   0  0  1  0  0  0  0  0  0  0  0  0
   -8.2210    4.5497  -22.8281 C   0  0  2  0  0  0  0  0  0  0  0  0
   -9.0761    5.7419  -22.8427 C   0  0  0  0  0  0  0  0  0  0  0  0
   -9.7769    6.6386  -22.8346 N   0  0  0  0  0  0  0  0  0  0  0  0
   -6.8515    4.6896  -23.4565 C   0  0  1  0  0  0  0  0  0  0  0  0
   -6.9638    4.5507  -21.9858 C   0  0  1  0  0  0  0  0  0  0  0  0
   -7.9140    2.1760  -25.1218 O   0  0  0  0  0  0  0  0  0  0  0  0
   -9.5435   -0.1098  -24.3296 C   0  0  2  0  0  0  0  0  0  0  0  0
   -9.6135   -2.1909  -22.8188 C   0  0  1  0  0  0  0  0  0  0  0  0
   -8.2950   -1.9758  -22.0818 C   0  0  1  0  0  0  0  0  0  0  0  0
   -8.4938   -0.6907  -21.3911 N   0  0  0  0  0  0  0  0  0  0  0  0
   -7.6383   -0.2555  -20.3227 C   0  0  0  0  0  0  0  0  0  0  0  0
   -8.0390   -0.4701  -19.0079 C   0  0  0  0  0  0  0  0  0  0  0  0
   -7.4053   -0.0135  -17.9182 N   0  0  0  0  0  0  0  0  0  0  0  0
   -6.2979    0.6904  -18.1062 C   0  0  0  0  0  0  0  0  0  0  0  0
   -6.4367    0.4903  -20.5288 C   0  0  0  0  0  0  0  0  0  0  0  0
   -5.7489    0.9806  -19.3810 C   0  0  0  0  0  0  0  0  0  0  0  0
   -4.5803    1.7603  -19.5619 C   0  0  0  0  0  0  0  0  0  0  0  0
   -4.1133    2.0376  -20.8136 C   0  0  0  0  0  0  0  0  0  0  0  0
   -5.9228    0.7975  -21.8104 C   0  0  0  0  0  0  0  0  0  0  0  0
   -4.7851    1.5571  -21.9363 C   0  0  0  0  0  0  0  0  0  0  0  0
   -4.2259    1.9070  -23.1439 O   0  0  0  0  0  0  0  0  0  0  0  0
   -4.9772    1.6671  -24.3527 C   0  0  1  0  0  0  0  0  0  0  0  0
   -4.0327    1.7029  -25.5329 C   0  0  1  0  0  0  0  0  0  0  0  0
   -4.1098    2.9438  -26.3114 N   0  0  2  0  0  0  0  0  0  0  0  0
   -4.5164    2.6606  -27.6859 C   0  0  1  0  0  0  0  0  0  0  0  0
   -2.8310    3.6497  -26.3047 C   0  0  1  0  0  0  0  0  0  0  0  0
  -11.9668   -2.2251  -21.6337 H   0  0  0  0  0  0  0  0  0  0  0  0
  -15.4756   -0.0077  -22.6404 H   0  0  0  0  0  0  0  0  0  0  0  0
  -14.1705    1.3381  -24.2349 H   0  0  0  0  0  0  0  0  0  0  0  0
  -11.7012    0.8480  -25.7998 H   0  0  0  0  0  0  0  0  0  0  0  0
  -11.9231    2.2707  -24.7258 H   0  0  0  0  0  0  0  0  0  0  0  0
  -10.0415    3.4762  -22.6618 H   0  0  0  0  0  0  0  0  0  0  0  0
   -8.5557    2.4977  -22.4139 H   0  0  0  0  0  0  0  0  0  0  0  0
   -6.4363    3.8651  -24.0548 H   0  0  0  0  0  0  0  0  0  0  0  0
   -6.5451    5.6510  -23.8945 H   0  0  0  0  0  0  0  0  0  0  0  0
   -6.7404    5.4094  -21.3356 H   0  0  0  0  0  0  0  0  0  0  0  0
   -6.6316    3.6236  -21.4959 H   0  0  0  0  0  0  0  0  0  0  0  0
   -9.7925   -0.7197  -25.2105 H   0  0  0  0  0  0  0  0  0  0  0  0
   -8.4504   -0.0450  -24.2255 H   0  0  0  0  0  0  0  0  0  0  0  0
  -10.3151   -2.7722  -22.2023 H   0  0  0  0  0  0  0  0  0  0  0  0
   -9.4468   -2.7109  -23.7736 H   0  0  0  0  0  0  0  0  0  0  0  0
   -8.1107   -2.7856  -21.3606 H   0  0  0  0  0  0  0  0  0  0  0  0
   -7.4544   -1.9162  -22.7889 H   0  0  0  0  0  0  0  0  0  0  0  0
   -8.9348   -1.0529  -18.8521 H   0  0  0  0  0  0  0  0  0  0  0  0
   -5.7820    1.0660  -17.2349 H   0  0  0  0  0  0  0  0  0  0  0  0
   -4.0528    2.1397  -18.6992 H   0  0  0  0  0  0  0  0  0  0  0  0
   -3.2196    2.6317  -20.9348 H   0  0  0  0  0  0  0  0  0  0  0  0
   -6.4268    0.4334  -22.6935 H   0  0  0  0  0  0  0  0  0  0  0  0
   -5.4609    0.6808  -24.2969 H   0  0  0  0  0  0  0  0  0  0  0  0
   -5.7450    2.4459  -24.4707 H   0  0  0  0  0  0  0  0  0  0  0  0
   -3.0045    1.5909  -25.1585 H   0  0  0  0  0  0  0  0  0  0  0  0
   -4.2748    0.8603  -26.1973 H   0  0  0  0  0  0  0  0  0  0  0  0
   -4.7994    3.5352  -25.8934 H   0  0  0  0  0  0  0  0  0  0  0  0
   -4.5689    3.6009  -28.2544 H   0  0  0  0  0  0  0  0  0  0  0  0
   -3.7817    1.9895  -28.1546 H   0  0  0  0  0  0  0  0  0  0  0  0
   -5.5049    2.1779  -27.6836 H   0  0  0  0  0  0  0  0  0  0  0  0
   -2.9187    4.5738  -26.8949 H   0  0  0  0  0  0  0  0  0  0  0  0
   -2.5562    3.9005  -25.2695 H   0  0  0  0  0  0  0  0  0  0  0  0
   -2.0548    3.0062  -26.7446 H   0  0  0  0  0  0  0  0  0  0  0  0
  1  2  2  0
  3  2  1  1
  2 25  1  0
  3  4  1  0
  3 22  1  0
  3 23  1  0
  4  5  2  0
  4 10  1  0
  5  6  1  0
  5 42  1  0
  6  7  1  0
  6  8  2  0
  8  9  1  0
  8 43  1  0
  9 10  2  0
  9 44  1  0
 10 11  1  0
 11 12  1  0
 11 45  1  6
 11 46  1  0
 13 12  1  1
 12 22  1  0
 13 14  2  0
 13 15  1  0
 13 21  2  0
 15 16  1  0
 15 47  1  1
 15 48  1  0
 16 17  1  1
 16 19  1  0
 16 20  1  0
 17 18  3  0
 19 20  1  0
 19 49  1  6
 19 50  1  0
 20 51  1  1
 20 52  1  0
 22 53  1  6
 22 54  1  0
 23 24  1  0
 23 55  1  1
 23 56  1  0
 24 25  1  0
 24 57  1  1
 24 58  1  0
 25 26  1  0
 26 27  2  0
 26 30  1  0
 27 28  1  0
 27 59  1  0
 28 29  2  0
 29 31  1  0
 29 60  1  0
 30 31  2  0
 30 34  1  0
 31 32  1  0
 32 33  2  0
 32 61  1  0
 33 35  1  0
 33 62  1  0
 34 35  2  0
 34 63  1  0
 35 36  1  0
 36 37  1  0
 37 38  1  0
 37 64  1  1
 37 65  1  0
 38 39  1  0
 38 66  1  1
 38 67  1  0
 39 40  1  0
 39 41  1  0
 39 68  1  1
 40 69  1  6
 40 70  1  0
 40 71  1  0
 41 72  1  6
 41 73  1  0
 41 74  1  0
M  CHG  1  39   1
M  END
$$$$
