LIG(A-307)
     RDKit          3D

 43 45  0  0  0  0  0  0  0  0999 V2000
    9.0940    1.0820   21.2540 O   0  0  0  0  0  0  0  0  0  0  0  0
    8.8700   -0.0220   21.7340 C   0  0  0  0  0  0  0  0  0  0  0  0
    7.9220   -0.9990   21.0330 C   0  0  1  0  0  0  0  0  0  0  0  0
    7.1850   -0.3600   19.9620 N   0  0  0  0  0  0  0  0  0  0  0  0
    6.0520    0.3960   20.0210 C   0  0  0  0  0  0  0  0  0  0  0  0
    5.2460    0.8350   21.0610 C   0  0  0  0  0  0  0  0  0  0  0  0
    4.1710    1.6550   20.7430 C   0  0  0  0  0  0  0  0  0  0  0  0
    3.9110    2.0130   19.4230 C   0  0  0  0  0  0  0  0  0  0  0  0
    4.7090    1.5480   18.3860 C   0  0  0  0  0  0  0  0  0  0  0  0
    5.7960    0.7340   18.6960 C   0  0  0  0  0  0  0  0  0  0  0  0
    6.7690    0.1670   17.9020 N   0  0  0  0  0  0  0  0  0  0  0  0
    7.5970   -0.4810   18.6740 N   0  0  0  0  0  0  0  0  0  0  0  0
    9.4120   -0.4040   22.9280 N   0  0  0  0  0  0  0  0  0  0  0  0
    8.9440   -1.5930   23.6740 C   0  0  1  0  0  0  0  0  0  0  0  0
   10.1040   -2.4500   24.1700 C   0  0  1  0  0  0  0  0  0  0  0  0
    7.9880   -1.1980   24.7900 C   0  0  1  0  0  0  0  0  0  0  0  0
   10.3530    0.4800   23.6290 C   0  0  1  0  0  0  0  0  0  0  0  0
   11.7830    0.4470   23.1320 C   0  0  0  0  0  0  0  0  0  0  0  0
   12.2370   -0.5710   22.3000 C   0  0  0  0  0  0  0  0  0  0  0  0
   13.5430   -0.5760   21.8340 C   0  0  0  0  0  0  0  0  0  0  0  0
   14.4110    0.4310   22.1940 C   0  0  0  0  0  0  0  0  0  0  0  0
   13.9830    1.4330   23.0350 C   0  0  0  0  0  0  0  0  0  0  0  0
   12.6780    1.4410   23.5020 C   0  0  0  0  0  0  0  0  0  0  0  0
    8.5113   -1.8281   20.6142 H   0  0  0  0  0  0  0  0  0  0  0  0
    7.2076   -1.3930   21.7709 H   0  0  0  0  0  0  0  0  0  0  0  0
    5.4474    0.5491   22.0828 H   0  0  0  0  0  0  0  0  0  0  0  0
    3.5281    2.0198   21.5304 H   0  0  0  0  0  0  0  0  0  0  0  0
    3.0764    2.6619   19.2022 H   0  0  0  0  0  0  0  0  0  0  0  0
    4.4916    1.8117   17.3615 H   0  0  0  0  0  0  0  0  0  0  0  0
    8.3703   -2.2141   22.9704 H   0  0  0  0  0  0  0  0  0  0  0  0
    9.7105   -3.3195   24.7170 H   0  0  0  0  0  0  0  0  0  0  0  0
   10.6980   -2.7954   23.3110 H   0  0  0  0  0  0  0  0  0  0  0  0
   10.7406   -1.8531   24.8397 H   0  0  0  0  0  0  0  0  0  0  0  0
    7.6571   -2.0996   25.3263 H   0  0  0  0  0  0  0  0  0  0  0  0
    8.5012   -0.5226   25.4903 H   0  0  0  0  0  0  0  0  0  0  0  0
    7.1145   -0.6858   24.3602 H   0  0  0  0  0  0  0  0  0  0  0  0
    9.9848    1.5118   23.5295 H   0  0  0  0  0  0  0  0  0  0  0  0
   10.3581    0.1934   24.6910 H   0  0  0  0  0  0  0  0  0  0  0  0
   11.5648   -1.3664   22.0137 H   0  0  0  0  0  0  0  0  0  0  0  0
   13.8806   -1.3719   21.1868 H   0  0  0  0  0  0  0  0  0  0  0  0
   15.4234    0.4344   21.8179 H   0  0  0  0  0  0  0  0  0  0  0  0
   14.6659    2.2152   23.3319 H   0  0  0  0  0  0  0  0  0  0  0  0
   12.3533    2.2313   24.1626 H   0  0  0  0  0  0  0  0  0  0  0  0
  1  2  2  0
  2  3  1  0
  2 13  1  0
  3  4  1  0
  3 24  1  6
  3 25  1  0
  4  5  1  0
  4 12  1  0
  5  6  2  0
  5 10  1  0
  6  7  1  0
  6 26  1  0
  7  8  2  0
  7 27  1  0
  8  9  1  0
  8 28  1  0
  9 10  2  0
  9 29  1  0
 10 11  1  0
 11 12  2  0
 13 14  1  0
 13 17  1  0
 14 15  1  0
 14 16  1  0
 14 30  1  6
 15 31  1  1
 15 32  1  0
 15 33  1  0
 16 34  1  1
 16 35  1  0
 16 36  1  0
 17 18  1  0
 17 37  1  1
 17 38  1  0
 18 19  2  0
 18 23  1  0
 19 20  1  0
 19 39  1  0
 20 21  2  0
 20 40  1  0
 21 22  1  0
 21 41  1  0
 22 23  2  0
 22 42  1  0
 23 43  1  0
M  END
$$$$
