LIG(A-306)
     RDKit          3D

 47 50  0  0  1  0  0  0  0  0999 V2000
  -14.1910   -2.3039  -20.9461 Cl  0  0  0  0  0  0  0  0  0  0  0  0
  -13.3073   -1.3305  -22.0840 C   0  0  0  0  0  0  0  0  0  0  0  0
  -13.9972   -0.4567  -22.8982 C   0  0  0  0  0  0  0  0  0  0  0  0
  -13.2926    0.3831  -23.7402 C   0  0  0  0  0  0  0  0  0  0  0  0
  -11.9070    0.3454  -23.7351 C   0  0  0  0  0  0  0  0  0  0  0  0
  -11.2749    1.2182  -24.5817 O   0  0  0  0  0  0  0  0  0  0  0  0
  -10.0453    0.7005  -25.1172 C   0  0  1  0  0  0  0  0  0  0  0  0
   -9.0543    0.3967  -24.0213 C   0  0  1  0  0  0  0  0  0  0  0  0
  -11.9263   -1.4028  -22.0992 C   0  0  0  0  0  0  0  0  0  0  0  0
  -11.2008   -0.5367  -22.9158 C   0  0  0  0  0  0  0  0  0  0  0  0
   -9.6828   -0.5065  -22.9370 C   0  0  2  0  0  0  0  0  0  0  0  0
   -9.1065   -0.1370  -21.5715 C   0  0  0  0  0  0  0  0  0  0  0  0
   -9.4761    0.8538  -20.9650 O   0  0  0  0  0  0  0  0  0  0  0  0
   -8.0812   -0.9506  -21.0300 N   0  0  0  0  0  0  0  0  0  0  0  0
   -7.8477   -2.2840  -21.4177 C   0  0  0  0  0  0  0  0  0  0  0  0
   -8.6862   -2.8964  -22.0611 O   0  0  0  0  0  0  0  0  0  0  0  0
   -6.5767   -2.9630  -20.9450 C   0  0  1  0  0  0  0  0  0  0  0  0
   -6.8530   -4.2546  -20.1827 C   0  0  1  0  0  0  0  0  0  0  0  0
   -7.2658   -0.3943  -19.9744 C   0  0  0  0  0  0  0  0  0  0  0  0
   -7.5988   -0.5632  -18.6365 C   0  0  0  0  0  0  0  0  0  0  0  0
   -6.9518    0.0247  -17.6193 N   0  0  0  0  0  0  0  0  0  0  0  0
   -5.9522    0.8446  -17.9172 C   0  0  0  0  0  0  0  0  0  0  0  0
   -5.5146    1.1262  -19.2324 C   0  0  0  0  0  0  0  0  0  0  0  0
   -6.1810    0.4714  -20.3083 C   0  0  0  0  0  0  0  0  0  0  0  0
   -4.4244    1.9831  -19.5161 C   0  0  0  0  0  0  0  0  0  0  0  0
   -4.0028    2.1685  -20.8004 C   0  0  0  0  0  0  0  0  0  0  0  0
   -4.6333    1.5165  -21.8523 C   0  0  0  0  0  0  0  0  0  0  0  0
   -5.6957    0.6878  -21.6232 C   0  0  0  0  0  0  0  0  0  0  0  0
  -15.0766   -0.4290  -22.8780 H   0  0  0  0  0  0  0  0  0  0  0  0
  -13.8170    1.0623  -24.3961 H   0  0  0  0  0  0  0  0  0  0  0  0
  -10.2583   -0.2240  -25.6739 H   0  0  0  0  0  0  0  0  0  0  0  0
   -9.6090    1.4463  -25.7981 H   0  0  0  0  0  0  0  0  0  0  0  0
   -8.1841   -0.1167  -24.4562 H   0  0  0  0  0  0  0  0  0  0  0  0
   -8.7299    1.3405  -23.5587 H   0  0  0  0  0  0  0  0  0  0  0  0
  -11.4131   -2.1256  -21.4822 H   0  0  0  0  0  0  0  0  0  0  0  0
   -9.3483   -1.5319  -23.1533 H   0  0  0  0  0  0  0  0  0  0  0  0
   -5.9548   -3.1969  -21.8216 H   0  0  0  0  0  0  0  0  0  0  0  0
   -6.0330   -2.2724  -20.2834 H   0  0  0  0  0  0  0  0  0  0  0  0
   -5.9008   -4.7039  -19.8643 H   0  0  0  0  0  0  0  0  0  0  0  0
   -7.4682   -4.0337  -19.2979 H   0  0  0  0  0  0  0  0  0  0  0  0
   -7.3899   -4.9581  -20.8361 H   0  0  0  0  0  0  0  0  0  0  0  0
   -8.4317   -1.2089  -18.4003 H   0  0  0  0  0  0  0  0  0  0  0  0
   -5.4382    1.3297  -17.1006 H   0  0  0  0  0  0  0  0  0  0  0  0
   -3.9216    2.4948  -18.7087 H   0  0  0  0  0  0  0  0  0  0  0  0
   -3.1714    2.8280  -21.0008 H   0  0  0  0  0  0  0  0  0  0  0  0
   -4.2804    1.6661  -22.8620 H   0  0  0  0  0  0  0  0  0  0  0  0
   -6.1724    0.1906  -22.4552 H   0  0  0  0  0  0  0  0  0  0  0  0
  1  2  1  0
  2  3  2  0
  2  9  1  0
  3  4  1  0
  3 29  1  0
  4  5  2  0
  4 30  1  0
  5  6  1  0
  5 10  1  0
  6  7  1  0
  7  8  1  0
  7 31  1  6
  7 32  1  0
  8 11  1  0
  8 33  1  6
  8 34  1  0
  9 10  2  0
  9 35  1  0
 10 11  1  0
 11 12  1  0
 11 36  1  6
 12 13  2  0
 12 14  1  0
 14 15  1  0
 14 19  1  0
 15 16  2  0
 15 17  1  0
 17 18  1  0
 17 37  1  6
 17 38  1  0
 18 39  1  1
 18 40  1  0
 18 41  1  0
 19 20  2  0
 19 24  1  0
 20 21  1  0
 20 42  1  0
 21 22  2  0
 22 23  1  0
 22 43  1  0
 23 24  2  0
 23 25  1  0
 24 28  1  0
 25 26  2  0
 25 44  1  0
 26 27  1  0
 26 45  1  0
 27 28  2  0
 27 46  1  0
 28 47  1  0
M  END
$$$$
