LIG(A-306)
     RDKit          3D

 33 35  0  0  0  0  0  0  0  0999 V2000
   -9.7060    0.2702  -20.9367 O   0  0  0  0  0  0  0  0  0  0  0  0
   -9.1620   -0.7820  -21.2691 C   0  0  0  0  0  0  0  0  0  0  0  0
   -9.8318   -1.7731  -22.2017 C   0  0  1  0  0  0  0  0  0  0  0  0
  -11.2744   -1.4434  -22.5016 C   0  0  0  0  0  0  0  0  0  0  0  0
  -12.3199   -2.0293  -21.7982 C   0  0  0  0  0  0  0  0  0  0  0  0
  -13.6173   -1.6380  -22.0871 C   0  0  0  0  0  0  0  0  0  0  0  0
  -13.8523   -0.6990  -23.0805 C   0  0  0  0  0  0  0  0  0  0  0  0
  -11.4785   -0.5405  -23.4782 N   0  0  0  0  0  0  0  0  0  0  0  0
  -12.7390   -0.2185  -23.7463 C   0  0  0  0  0  0  0  0  0  0  0  0
  -12.9663    0.8129  -25.1285 Cl  0  0  0  0  0  0  0  0  0  0  0  0
   -7.9434   -1.1625  -20.8311 N   0  0  0  0  0  0  0  0  0  0  0  0
   -7.1645   -0.5419  -19.8390 C   0  0  0  0  0  0  0  0  0  0  0  0
   -6.0749    0.2917  -20.2326 C   0  0  0  0  0  0  0  0  0  0  0  0
   -5.6514    0.4603  -21.5756 C   0  0  0  0  0  0  0  0  0  0  0  0
   -4.6237    1.3068  -21.8870 C   0  0  0  0  0  0  0  0  0  0  0  0
   -3.9625    2.0128  -20.8935 C   0  0  0  0  0  0  0  0  0  0  0  0
   -4.3231    1.8761  -19.5835 C   0  0  0  0  0  0  0  0  0  0  0  0
   -5.3868    1.0125  -19.2170 C   0  0  0  0  0  0  0  0  0  0  0  0
   -5.8194    0.8400  -17.8810 C   0  0  0  0  0  0  0  0  0  0  0  0
   -6.8308    0.0622  -17.5183 N   0  0  0  0  0  0  0  0  0  0  0  0
   -7.4758   -0.6088  -18.4828 C   0  0  0  0  0  0  0  0  0  0  0  0
   -9.2746   -1.7890  -23.1500 H   0  0  0  0  0  0  0  0  0  0  0  0
   -9.7924   -2.7691  -21.7365 H   0  0  0  0  0  0  0  0  0  0  0  0
  -12.1250   -2.7747  -21.0414 H   0  0  0  0  0  0  0  0  0  0  0  0
  -14.4449   -2.0639  -21.5392 H   0  0  0  0  0  0  0  0  0  0  0  0
  -14.8497   -0.3616  -23.3210 H   0  0  0  0  0  0  0  0  0  0  0  0
   -7.5511   -1.9763  -21.2599 H   0  0  0  0  0  0  0  0  0  0  0  0
   -6.1474   -0.0875  -22.3632 H   0  0  0  0  0  0  0  0  0  0  0  0
   -4.3238    1.4269  -22.9176 H   0  0  0  0  0  0  0  0  0  0  0  0
   -3.1538    2.6778  -21.1585 H   0  0  0  0  0  0  0  0  0  0  0  0
   -3.7947    2.4295  -18.8212 H   0  0  0  0  0  0  0  0  0  0  0  0
   -5.2918    1.3764  -17.1062 H   0  0  0  0  0  0  0  0  0  0  0  0
   -8.2955   -1.2470  -18.1874 H   0  0  0  0  0  0  0  0  0  0  0  0
  1  2  2  0
  2  3  1  0
  2 11  1  0
  3  4  1  0
  3 22  1  6
  3 23  1  0
  4  5  2  0
  4  8  1  0
  5  6  1  0
  5 24  1  0
  6  7  2  0
  6 25  1  0
  7  9  1  0
  7 26  1  0
  8  9  2  0
  9 10  1  0
 11 12  1  0
 11 27  1  0
 12 13  2  0
 12 21  1  0
 13 14  1  0
 13 18  1  0
 14 15  2  0
 14 28  1  0
 15 16  1  0
 15 29  1  0
 16 17  2  0
 16 30  1  0
 17 18  1  0
 17 31  1  0
 18 19  2  0
 19 20  1  0
 19 32  1  0
 20 21  2  0
 21 33  1  0
M  END
$$$$
