LIG(A-305)
     RDKit          3D

 32 33  0  0  1  0  0  0  0  0999 V2000
    6.7908   -4.3723   20.9248 C   0  0  0  0  0  0  0  0  0  0  0  0
    8.1838   -3.9833   20.4799 C   0  0  1  0  0  0  0  0  0  0  0  0
    7.7208   -4.7383   23.1649 C   0  0  0  0  0  0  0  0  0  0  0  0
    8.5318   -5.8573   23.3289 C   0  0  0  0  0  0  0  0  0  0  0  0
    9.5838   -5.8262   24.2289 C   0  0  0  0  0  0  0  0  0  0  0  0
    9.8357   -4.6972   24.9729 C   0  0  0  0  0  0  0  0  0  0  0  0
    9.0377   -3.5893   24.8209 C   0  0  0  0  0  0  0  0  0  0  0  0
    7.9777   -3.6013   23.9239 C   0  0  0  0  0  0  0  0  0  0  0  0
    5.3078   -5.2533   22.6438 C   0  0  1  0  0  0  0  0  0  0  0  0
    5.1298   -6.7263   22.2688 C   0  0  1  0  0  0  0  0  0  0  0  0
    4.1228   -7.2964   22.9308 C   0  0  1  0  0  0  0  0  0  0  0  0
    5.0558   -5.1984   24.1638 C   0  0  1  0  0  0  0  0  0  0  0  0
    6.6178   -4.7723   22.2318 N   0  0  0  0  0  0  0  0  0  0  0  0
    5.8608   -4.3413   20.1298 O   0  0  0  0  0  0  0  0  0  0  0  0
    4.4608   -7.4074   25.5128 O   0  0  0  0  0  0  0  0  0  0  0  0
    2.5928   -6.0584   24.6517 O   0  0  0  0  0  0  0  0  0  0  0  0
    3.9378   -6.5434   24.4888 S   0  0  2  0  0  0  0  0  0  0  0  0
    8.1648   -3.7037   19.4162 H   0  0  0  0  0  0  0  0  0  0  0  0
    8.5341   -3.1285   21.0772 H   0  0  0  0  0  0  0  0  0  0  0  0
    8.8655   -4.8346   20.6231 H   0  0  0  0  0  0  0  0  0  0  0  0
    8.3405   -6.7510   22.7534 H   0  0  0  0  0  0  0  0  0  0  0  0
   10.2121   -6.6965   24.3477 H   0  0  0  0  0  0  0  0  0  0  0  0
   10.6574   -4.6817   25.6736 H   0  0  0  0  0  0  0  0  0  0  0  0
    9.2364   -2.7020   25.4036 H   0  0  0  0  0  0  0  0  0  0  0  0
    7.3525   -2.7274   23.8155 H   0  0  0  0  0  0  0  0  0  0  0  0
    4.5251   -4.6669   22.1403 H   0  0  0  0  0  0  0  0  0  0  0  0
    4.9284   -6.7953   21.1896 H   0  0  0  0  0  0  0  0  0  0  0  0
    6.0589   -7.2664   22.5036 H   0  0  0  0  0  0  0  0  0  0  0  0
    3.1933   -7.1765   22.3548 H   0  0  0  0  0  0  0  0  0  0  0  0
    4.3349   -8.3673   23.0660 H   0  0  0  0  0  0  0  0  0  0  0  0
    5.9964   -5.3340   24.7176 H   0  0  0  0  0  0  0  0  0  0  0  0
    4.5992   -4.2383   24.4463 H   0  0  0  0  0  0  0  0  0  0  0  0
  1  2  1  0
  1 13  1  0
  1 14  2  0
  2 18  1  6
  2 19  1  0
  2 20  1  0
  3  4  2  0
  3  8  1  0
  3 13  1  0
  4  5  1  0
  4 21  1  0
  5  6  2  0
  5 22  1  0
  6  7  1  0
  6 23  1  0
  7  8  2  0
  7 24  1  0
  8 25  1  0
  9 10  1  0
  9 12  1  0
  9 13  1  0
  9 26  1  6
 10 11  1  0
 10 27  1  6
 10 28  1  0
 17 11  1  6
 11 29  1  6
 11 30  1  0
 12 17  1  0
 12 31  1  1
 12 32  1  0
 15 17  2  0
 16 17  2  0
M  END
$$$$
