LIG(A-306)
     RDKit          3D

 32 34  0  0  0  0  0  0  0  0999 V2000
    8.9451    0.9673   21.3823 O   0  0  0  0  0  0  0  0  0  0  0  0
    8.6273   -0.1588   21.7753 C   0  0  0  0  0  0  0  0  0  0  0  0
    9.3224   -0.8207   22.9533 C   0  0  1  0  0  0  0  0  0  0  0  0
   10.7933   -0.4844   23.0873 C   0  0  0  0  0  0  0  0  0  0  0  0
   11.2142    0.5326   23.9352 C   0  0  0  0  0  0  0  0  0  0  0  0
   12.5461    0.9178   23.9792 C   0  0  0  0  0  0  0  0  0  0  0  0
   13.4822    0.2950   23.1692 C   0  0  0  0  0  0  0  0  0  0  0  0
   11.7414   -1.1433   22.3082 C   0  0  0  0  0  0  0  0  0  0  0  0
   13.0634   -0.7351   22.3482 C   0  0  0  0  0  0  0  0  0  0  0  0
   14.2204   -1.5059   21.2952 Cl  0  0  0  0  0  0  0  0  0  0  0  0
    7.6284   -0.8819   21.2293 N   0  0  0  0  0  0  0  0  0  0  0  0
    6.9472   -0.3780   20.1193 N   0  0  0  0  0  0  0  0  0  0  0  0
    5.8111    0.4398   20.1464 C   0  0  0  0  0  0  0  0  0  0  0  0
    5.5870    0.7627   18.8044 C   0  0  0  0  0  0  0  0  0  0  0  0
    6.5291    0.1279   17.9854 N   0  0  0  0  0  0  0  0  0  0  0  0
    7.3022   -0.5270   18.8173 C   0  0  0  0  0  0  0  0  0  0  0  0
    5.0271    0.9517   21.1714 C   0  0  0  0  0  0  0  0  0  0  0  0
    4.0029    1.8265   20.8244 C   0  0  0  0  0  0  0  0  0  0  0  0
    3.7818    2.1815   19.4904 C   0  0  0  0  0  0  0  0  0  0  0  0
    4.5629    1.6496   18.4704 C   0  0  0  0  0  0  0  0  0  0  0  0
    8.8126   -0.5035   23.8750 H   0  0  0  0  0  0  0  0  0  0  0  0
    9.2285   -1.9107   22.8388 H   0  0  0  0  0  0  0  0  0  0  0  0
   10.4946    1.0300   24.5686 H   0  0  0  0  0  0  0  0  0  0  0  0
   12.8552    1.7073   24.6483 H   0  0  0  0  0  0  0  0  0  0  0  0
   14.5160    0.6074   23.1791 H   0  0  0  0  0  0  0  0  0  0  0  0
   11.4467   -1.9681   21.6765 H   0  0  0  0  0  0  0  0  0  0  0  0
    7.3780   -1.7698   21.6155 H   0  0  0  0  0  0  0  0  0  0  0  0
    8.1411   -1.1274   18.4977 H   0  0  0  0  0  0  0  0  0  0  0  0
    5.2059    0.6803   22.2013 H   0  0  0  0  0  0  0  0  0  0  0  0
    3.3695    2.2374   21.5965 H   0  0  0  0  0  0  0  0  0  0  0  0
    2.9932    2.8787   19.2487 H   0  0  0  0  0  0  0  0  0  0  0  0
    4.3805    1.9175   17.4402 H   0  0  0  0  0  0  0  0  0  0  0  0
  1  2  2  0
  2  3  1  0
  2 11  1  0
  3  4  1  0
  3 21  1  1
  3 22  1  0
  4  5  2  0
  4  8  1  0
  5  6  1  0
  5 23  1  0
  6  7  2  0
  6 24  1  0
  7  9  1  0
  7 25  1  0
  8  9  2  0
  8 26  1  0
  9 10  1  0
 11 12  1  0
 11 27  1  0
 12 13  1  0
 12 16  1  0
 13 14  2  0
 13 17  1  0
 14 15  1  0
 14 20  1  0
 15 16  2  0
 16 28  1  0
 17 18  2  0
 17 29  1  0
 18 19  1  0
 18 30  1  0
 19 20  2  0
 19 31  1  0
 20 32  1  0
M  END
$$$$
