LIG(A-306)
     RDKit          3D

 49 52  0  0  1  0  0  0  0  0999 V2000
   10.7163    3.1261   24.3952 O   0  0  0  0  0  0  0  0  0  0  0  0
   10.3757    1.9838   24.1513 C   0  0  0  0  0  0  0  0  0  0  0  0
    9.0820    1.5475   24.3617 N   0  0  0  0  0  0  0  0  0  0  0  0
    8.1744    2.3604   25.1495 C   0  0  1  0  0  0  0  0  0  0  0  0
    7.3066    3.3302   24.3648 C   0  0  0  0  0  0  0  0  0  0  0  0
    6.3181    3.8405   24.8901 O   0  0  0  0  0  0  0  0  0  0  0  0
    7.6563    3.5880   23.1085 N   0  0  0  0  0  0  0  0  0  0  0  0
    6.8636    4.4394   22.2413 C   0  0  1  0  0  0  0  0  0  0  0  0
   11.2884    1.0304   23.4913 C   0  0  0  0  0  0  0  0  0  0  0  0
   12.6357    1.3690   23.3308 C   0  0  0  0  0  0  0  0  0  0  0  0
   13.5018    0.5024   22.6903 C   0  0  0  0  0  0  0  0  0  0  0  0
   13.0194   -0.6979   22.2101 C   0  0  0  0  0  0  0  0  0  0  0  0
   14.0957   -1.7671   21.3540 Cl  0  0  0  0  0  0  0  0  0  0  0  0
   11.6887   -1.0506   22.3440 C   0  0  0  0  0  0  0  0  0  0  0  0
   10.7992   -0.1695   22.9591 C   0  0  0  0  0  0  0  0  0  0  0  0
    9.3113   -0.4533   22.9443 C   0  0  1  0  0  0  0  0  0  0  0  0
    8.6670    0.1529   24.1911 C   0  0  2  0  0  0  0  0  0  0  0  0
    8.7030    0.2114   21.7059 C   0  0  0  0  0  0  0  0  0  0  0  0
    9.1497    1.2599   21.2396 O   0  0  0  0  0  0  0  0  0  0  0  0
    7.6113   -0.4141   21.2001 N   0  0  0  0  0  0  0  0  0  0  0  0
    6.8130    0.0026   20.1063 C   0  0  0  0  0  0  0  0  0  0  0  0
    5.6918    0.8597   20.3565 C   0  0  0  0  0  0  0  0  0  0  0  0
    5.2197    1.1829   21.6569 C   0  0  0  0  0  0  0  0  0  0  0  0
    4.1280    1.9870   21.8286 C   0  0  0  0  0  0  0  0  0  0  0  0
    3.4611    2.5210   20.7314 C   0  0  0  0  0  0  0  0  0  0  0  0
    3.8764    2.2394   19.4607 C   0  0  0  0  0  0  0  0  0  0  0  0
    4.9930    1.3939   19.2372 C   0  0  0  0  0  0  0  0  0  0  0  0
    5.4379    1.0257   17.9439 C   0  0  0  0  0  0  0  0  0  0  0  0
    6.4630    0.2153   17.7119 N   0  0  0  0  0  0  0  0  0  0  0  0
    7.1173   -0.2760   18.7738 C   0  0  0  0  0  0  0  0  0  0  0  0
    7.5079    1.6825   25.7030 H   0  0  0  0  0  0  0  0  0  0  0  0
    8.7758    2.9451   25.8611 H   0  0  0  0  0  0  0  0  0  0  0  0
    8.4955    3.1805   22.7483 H   0  0  0  0  0  0  0  0  0  0  0  0
    7.3446    4.5077   21.2544 H   0  0  0  0  0  0  0  0  0  0  0  0
    5.8562    4.0122   22.1295 H   0  0  0  0  0  0  0  0  0  0  0  0
    6.7889    5.4441   22.6829 H   0  0  0  0  0  0  0  0  0  0  0  0
   13.0014    2.3122   23.7091 H   0  0  0  0  0  0  0  0  0  0  0  0
   14.5429    0.7616   22.5673 H   0  0  0  0  0  0  0  0  0  0  0  0
   11.3401   -2.0035   21.9742 H   0  0  0  0  0  0  0  0  0  0  0  0
    9.1310   -1.5381   22.9161 H   0  0  0  0  0  0  0  0  0  0  0  0
    7.5726    0.1117   24.0885 H   0  0  0  0  0  0  0  0  0  0  0  0
    8.9746   -0.4261   25.0744 H   0  0  0  0  0  0  0  0  0  0  0  0
    7.3391   -1.2649   21.6496 H   0  0  0  0  0  0  0  0  0  0  0  0
    5.7308    0.7874   22.5221 H   0  0  0  0  0  0  0  0  0  0  0  0
    3.7798    2.2100   22.8264 H   0  0  0  0  0  0  0  0  0  0  0  0
    2.6072    3.1642   20.8852 H   0  0  0  0  0  0  0  0  0  0  0  0
    3.3499    2.6644   18.6190 H   0  0  0  0  0  0  0  0  0  0  0  0
    4.9097    1.4299   17.0930 H   0  0  0  0  0  0  0  0  0  0  0  0
    7.9465   -0.9410   18.5823 H   0  0  0  0  0  0  0  0  0  0  0  0
  1  2  2  0
  2  3  1  0
  2  9  1  0
  3  4  1  0
  3 17  1  0
  4  5  1  0
  4 31  1  1
  4 32  1  0
  5  6  2  0
  5  7  1  0
  7  8  1  0
  7 33  1  0
  8 34  1  6
  8 35  1  0
  8 36  1  0
  9 10  2  0
  9 15  1  0
 10 11  1  0
 10 37  1  0
 11 12  2  0
 11 38  1  0
 12 13  1  0
 12 14  1  0
 14 15  2  0
 14 39  1  0
 15 16  1  0
 16 17  1  0
 16 18  1  0
 16 40  1  6
 17 41  1  6
 17 42  1  0
 18 19  2  0
 18 20  1  0
 20 21  1  0
 20 43  1  0
 21 22  2  0
 21 30  1  0
 22 23  1  0
 22 27  1  0
 23 24  2  0
 23 44  1  0
 24 25  1  0
 24 45  1  0
 25 26  2  0
 25 46  1  0
 26 27  1  0
 26 47  1  0
 27 28  2  0
 28 29  1  0
 28 48  1  0
 29 30  2  0
 30 49  1  0
M  END
$$$$
