LIG(A-305)
     RDKit          3D

 36 38  0  0  0  0  0  0  0  0999 V2000
    8.9319    0.5855   21.2633 O   0  0  0  0  0  0  0  0  0  0  0  0
    8.3759   -0.4995   21.4164 C   0  0  0  0  0  0  0  0  0  0  0  0
    7.3598   -0.9375   20.6465 N   0  0  0  0  0  0  0  0  0  0  0  0
    6.6547   -0.2304   19.6556 C   0  0  0  0  0  0  0  0  0  0  0  0
    5.5208    0.5417   20.0477 C   0  0  0  0  0  0  0  0  0  0  0  0
    5.0690    0.6557   21.3868 C   0  0  0  0  0  0  0  0  0  0  0  0
    3.9990    1.4438   21.7009 C   0  0  0  0  0  0  0  0  0  0  0  0
    3.3250    2.1468   20.7150 C   0  0  0  0  0  0  0  0  0  0  0  0
    3.7158    2.0648   19.4129 C   0  0  0  0  0  0  0  0  0  0  0  0
    4.8217    1.2617   19.0418 C   0  0  0  0  0  0  0  0  0  0  0  0
    5.2936    1.1606   17.7127 C   0  0  0  0  0  0  0  0  0  0  0  0
    6.3485    0.4476   17.3506 N   0  0  0  0  0  0  0  0  0  0  0  0
    7.0015   -0.2205   18.3086 C   0  0  0  0  0  0  0  0  0  0  0  0
    8.7769   -1.4305   22.5404 C   0  0  1  0  0  0  0  0  0  0  0  0
   10.2070   -1.1676   22.9332 C   0  0  0  0  0  0  0  0  0  0  0  0
   11.2359   -1.4077   22.0851 C   0  0  0  0  0  0  0  0  0  0  0  0
   12.5350   -0.8908   22.3279 C   0  0  0  0  0  0  0  0  0  0  0  0
   13.5338   -1.1168   21.4308 C   0  0  0  0  0  0  0  0  0  0  0  0
   14.3907   -1.3189   20.6377 C   0  0  0  0  0  0  0  0  0  0  0  0
   12.7221   -0.1238   23.5319 C   0  0  0  0  0  0  0  0  0  0  0  0
   11.6883    0.0543   24.4110 C   0  0  0  0  0  0  0  0  0  0  0  0
   10.4292   -0.4686   24.1282 C   0  0  0  0  0  0  0  0  0  0  0  0
    7.0712   -1.8827   20.7988 H   0  0  0  0  0  0  0  0  0  0  0  0
    5.5779    0.1119   22.1688 H   0  0  0  0  0  0  0  0  0  0  0  0
    3.6748    1.5200   22.7282 H   0  0  0  0  0  0  0  0  0  0  0  0
    2.4812    2.7660   20.9818 H   0  0  0  0  0  0  0  0  0  0  0  0
    3.1777    2.6170   18.6568 H   0  0  0  0  0  0  0  0  0  0  0  0
    4.7594    1.6995   16.9442 H   0  0  0  0  0  0  0  0  0  0  0  0
    7.8656   -0.7970   18.0128 H   0  0  0  0  0  0  0  0  0  0  0  0
    8.1224   -1.2595   23.4078 H   0  0  0  0  0  0  0  0  0  0  0  0
    8.6759   -2.4732   22.2048 H   0  0  0  0  0  0  0  0  0  0  0  0
   11.0633   -2.0068   21.2032 H   0  0  0  0  0  0  0  0  0  0  0  0
   15.1572   -1.4997   19.9282 H   0  0  0  0  0  0  0  0  0  0  0  0
   13.6863    0.3147   23.7431 H   0  0  0  0  0  0  0  0  0  0  0  0
   11.8497    0.6024   25.3275 H   0  0  0  0  0  0  0  0  0  0  0  0
    9.6208   -0.3353   24.8318 H   0  0  0  0  0  0  0  0  0  0  0  0
  1  2  2  0
  2  3  1  0
  2 14  1  0
  3  4  1  0
  3 23  1  0
  4  5  2  0
  4 13  1  0
  5  6  1  0
  5 10  1  0
  6  7  2  0
  6 24  1  0
  7  8  1  0
  7 25  1  0
  8  9  2  0
  8 26  1  0
  9 10  1  0
  9 27  1  0
 10 11  2  0
 11 12  1  0
 11 28  1  0
 12 13  2  0
 13 29  1  0
 14 15  1  0
 14 30  1  1
 14 31  1  0
 15 16  2  0
 15 22  1  0
 16 17  1  0
 16 32  1  0
 17 18  1  0
 17 20  2  0
 18 19  3  0
 19 33  1  0
 20 21  1  0
 20 34  1  0
 21 22  2  0
 21 35  1  0
 22 36  1  0
M  END
$$$$
