LIG(A-305)
     RDKit          3D

 36 37  0  0  1  0  0  0  0  0999 V2000
    6.8956   -2.7943   20.9166 N   0  0  0  0  0  0  0  0  0  0  0  0
    7.1734   -2.5874   18.4736 C   0  0  1  0  0  0  0  0  0  0  0  0
    5.8013   -4.2072   19.5548 O   0  0  0  0  0  0  0  0  0  0  0  0
    6.5594   -3.2513   19.6917 C   0  0  0  0  0  0  0  0  0  0  0  0
    7.7328   -1.6304   21.2095 C   0  0  1  0  0  0  0  0  0  0  0  0
    6.4607   -3.4543   22.1447 C   0  0  1  0  0  0  0  0  0  0  0  0
    7.6708   -3.8694   22.9455 C   0  0  1  0  0  0  0  0  0  0  0  0
    9.6650   -3.1136   24.0923 C   0  0  1  0  0  0  0  0  0  0  0  0
    9.3680   -4.1966   25.0843 C   0  0  2  0  0  0  0  0  0  0  0  0
    9.8029   -5.5166   25.0483 C   0  0  1  0  0  0  0  0  0  0  0  0
    9.5349   -6.2166   26.2463 C   0  0  1  0  0  0  0  0  0  0  0  0
    8.6391   -5.5175   27.0394 C   0  0  1  0  0  0  0  0  0  0  0  0
    8.9189   -2.0365   22.0554 C   0  0  1  0  0  0  0  0  0  0  0  0
    8.4979   -2.7095   23.2904 N   0  0  1  0  0  0  0  0  0  0  0  0
    8.3752   -3.9184   26.4735 S   0  0  0  0  0  0  0  0  0  0  0  0
    7.8132   -6.0964   28.4285 Cl  0  0  0  0  0  0  0  0  0  0  0  0
    6.8250   -3.0969   17.5630 H   0  0  0  0  0  0  0  0  0  0  0  0
    6.8708   -1.5304   18.4407 H   0  0  0  0  0  0  0  0  0  0  0  0
    8.2698   -2.6532   18.5338 H   0  0  0  0  0  0  0  0  0  0  0  0
    8.0924   -1.1953   20.2654 H   0  0  0  0  0  0  0  0  0  0  0  0
    7.1373   -0.8830   21.7544 H   0  0  0  0  0  0  0  0  0  0  0  0
    5.8486   -2.7591   22.7381 H   0  0  0  0  0  0  0  0  0  0  0  0
    5.8648   -4.3437   21.8923 H   0  0  0  0  0  0  0  0  0  0  0  0
    7.3375   -4.3611   23.8714 H   0  0  0  0  0  0  0  0  0  0  0  0
    8.2704   -4.5745   22.3512 H   0  0  0  0  0  0  0  0  0  0  0  0
   10.0324   -2.2327   24.6392 H   0  0  0  0  0  0  0  0  0  0  0  0
   10.4481   -3.4738   23.4089 H   0  0  0  0  0  0  0  0  0  0  0  0
   10.2603   -3.9152   25.6627 H   0  0  0  0  0  0  0  0  0  0  0  0
    9.2942   -6.0313   24.2198 H   0  0  0  0  0  0  0  0  0  0  0  0
   10.8887   -5.5238   24.8729 H   0  0  0  0  0  0  0  0  0  0  0  0
    9.1069   -7.1996   26.0007 H   0  0  0  0  0  0  0  0  0  0  0  0
   10.4750   -6.3541   26.8007 H   0  0  0  0  0  0  0  0  0  0  0  0
    9.4659   -5.1627   27.6722 H   0  0  0  0  0  0  0  0  0  0  0  0
    9.5536   -2.7217   21.4743 H   0  0  0  0  0  0  0  0  0  0  0  0
    9.4948   -1.1368   22.3178 H   0  0  0  0  0  0  0  0  0  0  0  0
    7.9467   -2.0724   23.8292 H   0  0  0  0  0  0  0  0  0  0  0  0
  1  4  1  0
  1  5  1  0
  1  6  1  0
  2  4  1  0
  2 17  1  6
  2 18  1  0
  2 19  1  0
  3  4  2  0
  5 13  1  0
  5 20  1  6
  5 21  1  0
  6  7  1  0
  6 22  1  1
  6 23  1  0
  7 14  1  0
  7 24  1  1
  7 25  1  0
  8  9  1  0
  8 14  1  0
  8 26  1  1
  8 27  1  0
  9 10  1  0
  9 15  1  0
  9 28  1  1
 10 11  1  0
 10 29  1  6
 10 30  1  0
 11 12  1  0
 11 31  1  6
 11 32  1  0
 12 15  1  0
 12 16  1  0
 12 33  1  1
 13 14  1  0
 13 34  1  6
 13 35  1  0
 14 36  1  1
M  CHG  1  14   1
M  END
$$$$
