LIG(A-306)
     RDKit          3D

 57 60  0  0  1  0  0  0  0  0999 V2000
   14.0887   -1.6278   21.2972 Cl  0  0  0  0  0  0  0  0  0  0  0  0
   12.9516   -0.8279   22.3501 C   0  0  0  0  0  0  0  0  0  0  0  0
   11.6236   -1.2131   22.3291 C   0  0  0  0  0  0  0  0  0  0  0  0
   13.3934    0.1911   23.1591 C   0  0  0  0  0  0  0  0  0  0  0  0
   12.4883    0.8271   23.9870 C   0  0  0  0  0  0  0  0  0  0  0  0
   11.1394    0.4809   23.9850 C   0  0  0  0  0  0  0  0  0  0  0  0
   10.2283    1.2248   24.9350 C   0  0  1  0  0  0  0  0  0  0  0  0
    8.8043    0.9257   24.7299 N   0  0  0  0  0  0  0  0  0  0  0  0
    7.6072    1.9065   25.1349 S   0  0  1  0  0  0  0  0  0  0  0  0
    6.3973    1.3634   24.6238 O   0  0  0  0  0  0  0  0  0  0  0  0
    7.7551    2.1776   26.5229 O   0  0  0  0  0  0  0  0  0  0  0  0
    7.9700    3.2405   24.3208 N   0  0  0  0  0  0  0  0  0  0  0  0
    8.5019    4.3786   25.0768 C   0  0  1  0  0  0  0  0  0  0  0  0
    7.3391    3.4684   23.0028 C   0  0  1  0  0  0  0  0  0  0  0  0
    6.1809    4.4373   23.0827 C   0  0  0  0  0  0  0  0  0  0  0  0
    5.3489    4.4492   23.9517 O   0  0  0  0  0  0  0  0  0  0  0  0
    6.2349    5.3223   22.0837 O   0  0  0  0  0  0  0  0  0  0  0  0
    5.4517    6.5312   22.2386 C   0  0  1  0  0  0  0  0  0  0  0  0
   10.6965   -0.5382   23.1270 C   0  0  0  0  0  0  0  0  0  0  0  0
    9.2126   -0.8354   23.0070 C   0  0  1  0  0  0  0  0  0  0  0  0
    8.4855   -0.4474   24.2940 C   0  0  1  0  0  0  0  0  0  0  0  0
    8.6225   -0.0645   21.8209 C   0  0  0  0  0  0  0  0  0  0  0  0
    9.1354    0.9716   21.3939 O   0  0  0  0  0  0  0  0  0  0  0  0
    7.4916   -0.6106   21.2919 N   0  0  0  0  0  0  0  0  0  0  0  0
    6.7306   -0.1467   20.1839 C   0  0  0  0  0  0  0  0  0  0  0  0
    5.5665    0.6521   20.4258 C   0  0  0  0  0  0  0  0  0  0  0  0
    5.0104    0.8661   21.7138 C   0  0  0  0  0  0  0  0  0  0  0  0
    3.8843    1.6240   21.8777 C   0  0  0  0  0  0  0  0  0  0  0  0
    3.2653    2.2179   20.7837 C   0  0  0  0  0  0  0  0  0  0  0  0
    3.7613    2.0429   19.5237 C   0  0  0  0  0  0  0  0  0  0  0  0
    4.9124    1.2460   19.3068 C   0  0  0  0  0  0  0  0  0  0  0  0
    5.4335    0.9770   18.0158 C   0  0  0  0  0  0  0  0  0  0  0  0
    6.4846    0.2032   17.7859 N   0  0  0  0  0  0  0  0  0  0  0  0
    7.1026   -0.3347   18.8499 C   0  0  0  0  0  0  0  0  0  0  0  0
   11.3051   -2.0308   21.6995 H   0  0  0  0  0  0  0  0  0  0  0  0
   14.4312    0.4902   23.1479 H   0  0  0  0  0  0  0  0  0  0  0  0
   12.8337    1.6077   24.6486 H   0  0  0  0  0  0  0  0  0  0  0  0
   10.4980    0.9490   25.9651 H   0  0  0  0  0  0  0  0  0  0  0  0
   10.3820    2.3046   24.7922 H   0  0  0  0  0  0  0  0  0  0  0  0
    8.7021    5.2142   24.3901 H   0  0  0  0  0  0  0  0  0  0  0  0
    7.7663    4.6930   25.8320 H   0  0  0  0  0  0  0  0  0  0  0  0
    9.4363    4.0826   25.5760 H   0  0  0  0  0  0  0  0  0  0  0  0
    8.0943    3.8754   22.3143 H   0  0  0  0  0  0  0  0  0  0  0  0
    6.9703    2.5071   22.6158 H   0  0  0  0  0  0  0  0  0  0  0  0
    5.5834    7.1701   21.3529 H   0  0  0  0  0  0  0  0  0  0  0  0
    4.3891    6.2683   22.3462 H   0  0  0  0  0  0  0  0  0  0  0  0
    5.7878    7.0732   23.1348 H   0  0  0  0  0  0  0  0  0  0  0  0
    9.0763   -1.9129   22.8326 H   0  0  0  0  0  0  0  0  0  0  0  0
    8.7789   -1.1475   25.0900 H   0  0  0  0  0  0  0  0  0  0  0  0
    7.4014   -0.5205   24.1226 H   0  0  0  0  0  0  0  0  0  0  0  0
    7.1554   -1.4400   21.7380 H   0  0  0  0  0  0  0  0  0  0  0  0
    5.4839    0.4236   22.5777 H   0  0  0  0  0  0  0  0  0  0  0  0
    3.4719    1.7626   22.8662 H   0  0  0  0  0  0  0  0  0  0  0  0
    2.3834    2.8235   20.9319 H   0  0  0  0  0  0  0  0  0  0  0  0
    3.2720    2.5160   18.6852 H   0  0  0  0  0  0  0  0  0  0  0  0
    4.9435    1.4310   17.1672 H   0  0  0  0  0  0  0  0  0  0  0  0
    7.9585   -0.9651   18.6589 H   0  0  0  0  0  0  0  0  0  0  0  0
  1  2  1  0
  2  3  2  0
  2  4  1  0
  3 19  1  0
  3 35  1  0
  4  5  2  0
  4 36  1  0
  5  6  1  0
  5 37  1  0
  6  7  1  0
  6 19  2  0
  7  8  1  0
  7 38  1  1
  7 39  1  0
  8  9  1  0
  8 21  1  0
  9 10  2  0
  9 11  2  0
  9 12  1  6
 12 13  1  0
 12 14  1  0
 13 40  1  6
 13 41  1  0
 13 42  1  0
 14 15  1  0
 14 43  1  6
 14 44  1  0
 15 16  2  0
 15 17  1  0
 17 18  1  0
 18 45  1  6
 18 46  1  0
 18 47  1  0
 19 20  1  0
 20 21  1  0
 20 22  1  0
 20 48  1  6
 21 49  1  1
 21 50  1  0
 22 23  2  0
 22 24  1  0
 24 25  1  0
 24 51  1  0
 25 26  2  0
 25 34  1  0
 26 27  1  0
 26 31  1  0
 27 28  2  0
 27 52  1  0
 28 29  1  0
 28 53  1  0
 29 30  2  0
 29 54  1  0
 30 31  1  0
 30 55  1  0
 31 32  2  0
 32 33  1  0
 32 56  1  0
 33 34  2  0
 34 57  1  0
M  END
$$$$
