LIG(A-305)
     RDKit          3D

 25 25  0  0  1  0  0  0  0  0999 V2000
    7.8589   -1.3258   23.5490 C   0  0  1  0  0  0  0  0  0  0  0  0
    9.0240   -2.1007   22.9380 C   0  0  2  0  0  0  0  0  0  0  0  0
    8.3190   -1.7768   20.5540 C   0  0  0  0  0  0  0  0  0  0  0  0
    7.9780   -2.4429   19.2190 C   0  0  1  0  0  0  0  0  0  0  0  0
   10.3539   -1.3656   22.9610 C   0  0  0  0  0  0  0  0  0  0  0  0
   10.5749   -0.2236   23.7220 C   0  0  0  0  0  0  0  0  0  0  0  0
   11.8148    0.3915   23.7250 C   0  0  0  0  0  0  0  0  0  0  0  0
   12.8609   -0.1285   22.9980 C   0  0  0  0  0  0  0  0  0  0  0  0
   12.6429   -1.2645   22.2600 C   0  0  0  0  0  0  0  0  0  0  0  0
   11.4150   -1.8816   22.2400 C   0  0  0  0  0  0  0  0  0  0  0  0
    8.6700   -2.5628   21.5820 N   0  0  0  0  0  0  0  0  0  0  0  0
    8.2529   -0.5448   20.6250 O   0  0  0  0  0  0  0  0  0  0  0  0
   13.9370   -1.9464   21.3221 Cl  0  0  0  0  0  0  0  0  0  0  0  0
    6.9430   -1.9319   23.4887 H   0  0  0  0  0  0  0  0  0  0  0  0
    8.0808   -1.1006   24.6026 H   0  0  0  0  0  0  0  0  0  0  0  0
    7.7137   -0.3861   22.9960 H   0  0  0  0  0  0  0  0  0  0  0  0
    9.1556   -2.9999   23.5578 H   0  0  0  0  0  0  0  0  0  0  0  0
    7.7096   -1.6717   18.4819 H   0  0  0  0  0  0  0  0  0  0  0  0
    8.8503   -3.0074   18.8577 H   0  0  0  0  0  0  0  0  0  0  0  0
    7.1292   -3.1286   19.3577 H   0  0  0  0  0  0  0  0  0  0  0  0
    9.7720    0.1874   24.3161 H   0  0  0  0  0  0  0  0  0  0  0  0
   11.9631    1.2904   24.3050 H   0  0  0  0  0  0  0  0  0  0  0  0
   13.8307    0.3465   23.0080 H   0  0  0  0  0  0  0  0  0  0  0  0
   11.2774   -2.7789   21.6551 H   0  0  0  0  0  0  0  0  0  0  0  0
    8.6941   -3.5485   21.4152 H   0  0  0  0  0  0  0  0  0  0  0  0
  1  2  1  0
  1 14  1  1
  1 15  1  0
  1 16  1  0
  2  5  1  0
  2 11  1  0
  2 17  1  1
  3  4  1  0
  3 11  1  0
  3 12  2  0
  4 18  1  6
  4 19  1  0
  4 20  1  0
  5  6  2  0
  5 10  1  0
  6  7  1  0
  6 21  1  0
  7  8  2  0
  7 22  1  0
  8  9  1  0
  8 23  1  0
  9 10  2  0
  9 13  1  0
 10 24  1  0
 11 25  1  0
M  END
$$$$
