LIG(A-306)
     RDKit          3D

 49 53  0  0  1  0  0  0  0  0999 V2000
   -9.0140    0.5685  -21.3900 O   0  0  0  0  0  0  0  0  0  0  0  0
   -8.7292   -0.6230  -21.2845 C   0  0  0  0  0  0  0  0  0  0  0  0
   -7.9934   -1.1146  -20.2694 N   0  0  0  0  0  0  0  0  0  0  0  0
   -6.9918   -0.5122  -19.4778 C   0  0  0  0  0  0  0  0  0  0  0  0
   -6.0802    0.4624  -20.0114 C   0  0  0  0  0  0  0  0  0  0  0  0
   -5.7579    0.5757  -21.3884 C   0  0  0  0  0  0  0  0  0  0  0  0
   -4.7907    1.4405  -21.8183 C   0  0  0  0  0  0  0  0  0  0  0  0
   -4.0978    2.2356  -20.9160 C   0  0  0  0  0  0  0  0  0  0  0  0
   -4.3722    2.1690  -19.5809 C   0  0  0  0  0  0  0  0  0  0  0  0
   -5.3639    1.2800  -19.0920 C   0  0  0  0  0  0  0  0  0  0  0  0
   -5.6157    1.0940  -17.7123 C   0  0  0  0  0  0  0  0  0  0  0  0
   -6.4371    0.1839  -17.2200 N   0  0  0  0  0  0  0  0  0  0  0  0
   -7.0806   -0.6024  -18.0896 C   0  0  0  0  0  0  0  0  0  0  0  0
   -9.3095   -1.6858  -22.2197 C   0  0  1  0  0  0  0  0  0  0  0  0
  -10.7401   -1.3306  -22.5710 C   0  0  0  0  0  0  0  0  0  0  0  0
  -10.9956   -0.4012  -23.5870 C   0  0  0  0  0  0  0  0  0  0  0  0
  -12.2986    0.0031  -23.8662 C   0  0  0  0  0  0  0  0  0  0  0  0
  -13.3556   -0.5571  -23.1695 C   0  0  0  0  0  0  0  0  0  0  0  0
  -11.8131   -1.8988  -21.8889 C   0  0  0  0  0  0  0  0  0  0  0  0
  -13.1013   -1.5104  -22.2041 C   0  0  0  0  0  0  0  0  0  0  0  0
  -14.4350   -2.2452  -21.3580 Cl  0  0  0  0  0  0  0  0  0  0  0  0
   -8.4962   -1.8029  -23.5260 C   0  0  1  0  0  0  0  0  0  0  0  0
   -8.5633   -0.5110  -24.3436 C   0  0  1  0  0  0  0  0  0  0  0  0
   -9.9162    0.0576  -24.4244 N   0  0  0  0  0  0  0  0  0  0  0  0
  -10.0450    1.2576  -25.2320 C   0  0  1  0  0  0  0  0  0  0  0  0
  -10.4515    0.9411  -26.6356 C   0  0  0  0  0  0  0  0  0  0  0  0
  -11.3089   -0.0081  -27.0112 N   0  0  0  0  0  0  0  0  0  0  0  0
  -11.4259   -0.0022  -28.3742 N   0  0  0  0  0  0  0  0  0  0  0  0
  -10.6258    0.9605  -28.7748 C   0  0  0  0  0  0  0  0  0  0  0  0
   -9.9829    1.5959  -27.7615 N   0  0  0  0  0  0  0  0  0  0  0  0
   -8.1896   -2.0672  -20.0371 H   0  0  0  0  0  0  0  0  0  0  0  0
   -6.2856   -0.0316  -22.1090 H   0  0  0  0  0  0  0  0  0  0  0  0
   -4.5630    1.5059  -22.8720 H   0  0  0  0  0  0  0  0  0  0  0  0
   -3.3356    2.9123  -21.2732 H   0  0  0  0  0  0  0  0  0  0  0  0
   -3.8299    2.7982  -18.8906 H   0  0  0  0  0  0  0  0  0  0  0  0
   -5.1020    1.7391  -17.0149 H   0  0  0  0  0  0  0  0  0  0  0  0
   -7.7218   -1.3704  -17.6829 H   0  0  0  0  0  0  0  0  0  0  0  0
   -9.2957   -2.6585  -21.7062 H   0  0  0  0  0  0  0  0  0  0  0  0
  -12.4838    0.7508  -24.6232 H   0  0  0  0  0  0  0  0  0  0  0  0
  -14.3698   -0.2511  -23.3794 H   0  0  0  0  0  0  0  0  0  0  0  0
  -11.6399   -2.6370  -21.1198 H   0  0  0  0  0  0  0  0  0  0  0  0
   -7.4460   -2.0139  -23.2759 H   0  0  0  0  0  0  0  0  0  0  0  0
   -8.9030   -2.6288  -24.1279 H   0  0  0  0  0  0  0  0  0  0  0  0
   -7.8999    0.2321  -23.8771 H   0  0  0  0  0  0  0  0  0  0  0  0
   -8.2134   -0.7254  -25.3642 H   0  0  0  0  0  0  0  0  0  0  0  0
  -10.8054    1.9113  -24.7799 H   0  0  0  0  0  0  0  0  0  0  0  0
   -9.0769    1.7797  -25.2508 H   0  0  0  0  0  0  0  0  0  0  0  0
  -10.4919    1.2220  -29.8141 H   0  0  0  0  0  0  0  0  0  0  0  0
   -9.3306    2.3520  -27.8154 H   0  0  0  0  0  0  0  0  0  0  0  0
  1  2  2  0
  2  3  1  0
  2 14  1  0
  3  4  1  0
  3 31  1  0
  4  5  2  0
  4 13  1  0
  5  6  1  0
  5 10  1  0
  6  7  2  0
  6 32  1  0
  7  8  1  0
  7 33  1  0
  8  9  2  0
  8 34  1  0
  9 10  1  0
  9 35  1  0
 10 11  2  0
 11 12  1  0
 11 36  1  0
 12 13  2  0
 13 37  1  0
 14 15  1  0
 14 22  1  0
 14 38  1  1
 15 16  2  0
 15 19  1  0
 16 17  1  0
 16 24  1  0
 17 18  2  0
 17 39  1  0
 18 20  1  0
 18 40  1  0
 19 20  2  0
 19 41  1  0
 20 21  1  0
 22 23  1  0
 22 42  1  1
 22 43  1  0
 23 24  1  0
 23 44  1  1
 23 45  1  0
 24 25  1  0
 25 26  1  0
 25 46  1  1
 25 47  1  0
 26 27  2  0
 26 30  1  0
 27 28  1  0
 28 29  2  0
 29 30  1  0
 29 48  1  0
 30 49  1  0
M  END
$$$$
