LIG(A-305)
     RDKit          3D

 43 45  0  0  0  0  0  0  0  0999 V2000
    6.5700    1.0673   16.7784 O   0  0  0  0  0  0  0  0  0  0  0  0
    5.9821    0.8063   17.8335 C   0  0  0  0  0  0  0  0  0  0  0  0
    6.3682   -0.2407   18.7155 C   0  0  0  0  0  0  0  0  0  0  0  0
    4.9481    1.5993   18.2615 N   0  0  0  0  0  0  0  0  0  0  0  0
    4.3122    1.4664   19.4946 C   0  0  0  0  0  0  0  0  0  0  0  0
    4.7433    0.4714   20.3916 C   0  0  0  0  0  0  0  0  0  0  0  0
    4.1324    0.3684   21.6446 C   0  0  0  0  0  0  0  0  0  0  0  0
    3.0744    1.2024   21.9677 C   0  0  0  0  0  0  0  0  0  0  0  0
    2.6244    2.1424   21.0637 C   0  0  0  0  0  0  0  0  0  0  0  0
    3.2453    2.2914   19.8347 C   0  0  0  0  0  0  0  0  0  0  0  0
    5.7983   -0.4246   19.9335 C   0  0  0  0  0  0  0  0  0  0  0  0
    6.2203   -1.5806   20.7475 C   0  0  0  0  0  0  0  0  0  0  0  0
    5.4913   -2.5616   20.8846 O   0  0  0  0  0  0  0  0  0  0  0  0
    7.4094   -1.4756   21.3374 N   0  0  0  0  0  0  0  0  0  0  0  0
    7.9314   -2.5136   22.2114 C   0  0  1  0  0  0  0  0  0  0  0  0
    9.4284   -2.4666   22.2742 C   0  0  1  0  0  0  0  0  0  0  0  0
    9.8025   -1.1216   22.6112 O   0  0  0  0  0  0  0  0  0  0  0  0
   11.1345   -0.7816   22.6371 C   0  0  0  0  0  0  0  0  0  0  0  0
   11.4215    0.5064   23.1350 C   0  0  0  0  0  0  0  0  0  0  0  0
   10.3306    1.2364   23.5231 O   0  0  0  0  0  0  0  0  0  0  0  0
   10.5496    2.5654   24.0041 C   0  0  1  0  0  0  0  0  0  0  0  0
   12.1674   -1.5886   22.1740 C   0  0  0  0  0  0  0  0  0  0  0  0
   13.4664   -1.1056   22.1759 C   0  0  0  0  0  0  0  0  0  0  0  0
   13.7485    0.1574   22.6628 C   0  0  0  0  0  0  0  0  0  0  0  0
   12.7335    0.9634   23.1579 C   0  0  0  0  0  0  0  0  0  0  0  0
    7.1484   -0.9186   18.4024 H   0  0  0  0  0  0  0  0  0  0  0  0
    4.6278    2.3205   17.6426 H   0  0  0  0  0  0  0  0  0  0  0  0
    4.4847   -0.3602   22.3598 H   0  0  0  0  0  0  0  0  0  0  0  0
    2.5989    1.1161   22.9335 H   0  0  0  0  0  0  0  0  0  0  0  0
    1.7807    2.7674   21.3166 H   0  0  0  0  0  0  0  0  0  0  0  0
    2.9020    3.0459   19.1424 H   0  0  0  0  0  0  0  0  0  0  0  0
    7.9605   -0.6573   21.1742 H   0  0  0  0  0  0  0  0  0  0  0  0
    7.5250   -2.3687   23.2232 H   0  0  0  0  0  0  0  0  0  0  0  0
    7.6190   -3.4962   21.8280 H   0  0  0  0  0  0  0  0  0  0  0  0
    9.7944   -3.1625   23.0435 H   0  0  0  0  0  0  0  0  0  0  0  0
    9.8545   -2.7419   21.2982 H   0  0  0  0  0  0  0  0  0  0  0  0
    9.5859    3.0212   24.2752 H   0  0  0  0  0  0  0  0  0  0  0  0
   11.2014    2.5320   24.8895 H   0  0  0  0  0  0  0  0  0  0  0  0
   11.0303    3.1653   23.2173 H   0  0  0  0  0  0  0  0  0  0  0  0
   11.9589   -2.5856   21.8150 H   0  0  0  0  0  0  0  0  0  0  0  0
   14.2665   -1.7219   21.7931 H   0  0  0  0  0  0  0  0  0  0  0  0
   14.7661    0.5191   22.6577 H   0  0  0  0  0  0  0  0  0  0  0  0
   12.9618    1.9400   23.5586 H   0  0  0  0  0  0  0  0  0  0  0  0
  1  2  2  0
  2  3  1  0
  2  4  1  0
  3 11  2  0
  3 26  1  0
  4  5  1  0
  4 27  1  0
  5  6  2  0
  5 10  1  0
  6  7  1  0
  6 11  1  0
  7  8  2  0
  7 28  1  0
  8  9  1  0
  8 29  1  0
  9 10  2  0
  9 30  1  0
 10 31  1  0
 11 12  1  0
 12 13  2  0
 12 14  1  0
 14 15  1  0
 14 32  1  0
 15 16  1  0
 15 33  1  1
 15 34  1  0
 16 17  1  0
 16 35  1  1
 16 36  1  0
 17 18  1  0
 18 19  2  0
 18 22  1  0
 19 20  1  0
 19 25  1  0
 20 21  1  0
 21 37  1  1
 21 38  1  0
 21 39  1  0
 22 23  2  0
 22 40  1  0
 23 24  1  0
 23 41  1  0
 24 25  2  0
 24 42  1  0
 25 43  1  0
M  END
$$$$
