LIG(A-305)
     RDKit          3D

 34 35  0  0  0  0  0  0  0  0999 V2000
    5.5031   -5.3527   24.3708 N   0  0  0  0  0  0  0  0  0  0  0  0
    4.2044   -2.6026   26.0460 C   0  0  0  0  0  0  0  0  0  0  0  0
    5.8224   -5.0586   26.7908 O   0  0  0  0  0  0  0  0  0  0  0  0
    3.3695   -1.5086   26.0821 C   0  0  0  0  0  0  0  0  0  0  0  0
    6.7015   -4.4958   20.5556 C   0  0  0  0  0  0  0  0  0  0  0  0
    7.9105   -3.6199   20.3344 C   0  0  1  0  0  0  0  0  0  0  0  0
    2.0064   -1.7005   25.9563 C   0  0  0  0  0  0  0  0  0  0  0  0
    1.4844   -2.9645   25.7924 C   0  0  0  0  0  0  0  0  0  0  0  0
    2.3233   -4.0656   25.7543 C   0  0  0  0  0  0  0  0  0  0  0  0
    3.6953   -3.8926   25.8751 C   0  0  0  0  0  0  0  0  0  0  0  0
    6.5551   -4.3627   24.0956 C   0  0  1  0  0  0  0  0  0  0  0  0
    7.3959   -4.8468   22.9445 C   0  0  1  0  0  0  0  0  0  0  0  0
    5.4947   -6.0498   22.0509 C   0  0  1  0  0  0  0  0  0  0  0  0
    4.6409   -5.5737   23.1970 C   0  0  2  0  0  0  0  0  0  0  0  0
    5.5354   -2.4067   26.1718 F   0  0  0  0  0  0  0  0  0  0  0  0
    6.5537   -5.0798   21.7687 N   0  0  0  0  0  0  0  0  0  0  0  0
    3.9733   -6.4646   25.9531 O   0  0  0  0  0  0  0  0  0  0  0  0
    5.8934   -4.6598   19.6498 O   0  0  0  0  0  0  0  0  0  0  0  0
    4.7793   -5.2906   25.8409 S   0  0  1  0  0  0  0  0  0  0  0  0
    3.7736   -0.5148   26.2069 H   0  0  0  0  0  0  0  0  0  0  0  0
    7.8927   -3.2214   19.3093 H   0  0  0  0  0  0  0  0  0  0  0  0
    7.8955   -2.7863   21.0520 H   0  0  0  0  0  0  0  0  0  0  0  0
    8.8249   -4.2134   20.4811 H   0  0  0  0  0  0  0  0  0  0  0  0
    1.3428   -0.8491   25.9869 H   0  0  0  0  0  0  0  0  0  0  0  0
    0.4171   -3.0974   25.6932 H   0  0  0  0  0  0  0  0  0  0  0  0
    1.9113   -5.0562   25.6309 H   0  0  0  0  0  0  0  0  0  0  0  0
    6.0947   -3.3981   23.8358 H   0  0  0  0  0  0  0  0  0  0  0  0
    7.1871   -4.2389   24.9874 H   0  0  0  0  0  0  0  0  0  0  0  0
    8.1547   -4.0877   22.7038 H   0  0  0  0  0  0  0  0  0  0  0  0
    7.8937   -5.7861   23.2274 H   0  0  0  0  0  0  0  0  0  0  0  0
    5.9489   -7.0165   22.3139 H   0  0  0  0  0  0  0  0  0  0  0  0
    4.8663   -6.1713   21.1563 H   0  0  0  0  0  0  0  0  0  0  0  0
    4.1432   -4.6323   22.9212 H   0  0  0  0  0  0  0  0  0  0  0  0
    3.8820   -6.3341   23.4335 H   0  0  0  0  0  0  0  0  0  0  0  0
  1 11  1  0
  1 14  1  0
 19  1  1  6
  2  4  2  0
  2 10  1  0
  2 15  1  0
  3 19  2  0
  4  7  1  0
  4 20  1  0
  5  6  1  0
  5 16  1  0
  5 18  2  0
  6 21  1  6
  6 22  1  0
  6 23  1  0
  7  8  2  0
  7 24  1  0
  8  9  1  0
  8 25  1  0
  9 10  2  0
  9 26  1  0
 10 19  1  0
 11 12  1  0
 11 27  1  6
 11 28  1  0
 12 16  1  0
 12 29  1  6
 12 30  1  0
 13 14  1  0
 13 16  1  0
 13 31  1  1
 13 32  1  0
 14 33  1  6
 14 34  1  0
 17 19  2  0
M  END
$$$$
