LIG(A-305)
     RDKit          3D

 40 41  0  0  1  0  0  0  0  0999 V2000
   11.2373    6.0936   23.8586 O   0  0  0  0  0  0  0  0  0  0  0  0
   10.2902    5.0278   24.0018 S   0  0  1  0  0  0  0  0  0  0  0  0
    9.6813    4.8139   25.2798 O   0  0  0  0  0  0  0  0  0  0  0  0
    9.1132    5.2958   22.9478 N   0  0  0  0  0  0  0  0  0  0  0  0
   11.1120    3.5296   23.5578 C   0  0  0  0  0  0  0  0  0  0  0  0
   12.3079    3.5814   22.8617 C   0  0  0  0  0  0  0  0  0  0  0  0
   12.9638    2.4033   22.5588 C   0  0  0  0  0  0  0  0  0  0  0  0
   10.5589    2.3177   23.9420 C   0  0  0  0  0  0  0  0  0  0  0  0
   11.2197    1.1316   23.6250 C   0  0  0  0  0  0  0  0  0  0  0  0
   12.4397    1.1694   22.9389 C   0  0  0  0  0  0  0  0  0  0  0  0
   13.1505   -0.1227   22.6289 C   0  0  1  0  0  0  0  0  0  0  0  0
   12.1643   -1.2576   22.4461 C   0  0  1  0  0  0  0  0  0  0  0  0
   11.2604   -1.3844   23.6602 C   0  0  1  0  0  0  0  0  0  0  0  0
   10.5946   -0.1203   23.9852 N   0  0  0  0  0  0  0  0  0  0  0  0
    9.1346   -0.2021   24.0973 C   0  0  1  0  0  0  0  0  0  0  0  0
    8.6696   -0.7109   25.4494 C   0  0  1  0  0  0  0  0  0  0  0  0
    7.2006   -0.7087   25.4975 N   0  0  0  0  0  0  0  0  0  0  0  0
    6.3988    0.6844   25.7055 S   0  0  2  0  0  0  0  0  0  0  0  0
    7.3480    1.6363   26.1913 O   0  0  0  0  0  0  0  0  0  0  0  0
    5.2489    0.3916   26.5036 O   0  0  0  0  0  0  0  0  0  0  0  0
    5.8478    1.2173   24.1295 C   0  0  1  0  0  0  0  0  0  0  0  0
    9.0526    4.5262   22.3122 H   0  0  0  0  0  0  0  0  0  0  0  0
    9.3061    6.1342   22.4381 H   0  0  0  0  0  0  0  0  0  0  0  0
   12.7232    4.5313   22.5591 H   0  0  0  0  0  0  0  0  0  0  0  0
   13.8981    2.4396   22.0184 H   0  0  0  0  0  0  0  0  0  0  0  0
    9.6240    2.2927   24.4821 H   0  0  0  0  0  0  0  0  0  0  0  0
   13.7321    0.0003   21.7035 H   0  0  0  0  0  0  0  0  0  0  0  0
   13.8296   -0.3671   23.4590 H   0  0  0  0  0  0  0  0  0  0  0  0
   11.5483   -1.0608   21.5563 H   0  0  0  0  0  0  0  0  0  0  0  0
   12.7178   -2.1982   22.3083 H   0  0  0  0  0  0  0  0  0  0  0  0
   10.4942   -2.1463   23.4541 H   0  0  0  0  0  0  0  0  0  0  0  0
   11.8667   -1.6981   24.5228 H   0  0  0  0  0  0  0  0  0  0  0  0
    8.7143    0.8017   23.9374 H   0  0  0  0  0  0  0  0  0  0  0  0
    8.7612   -0.8841   23.3192 H   0  0  0  0  0  0  0  0  0  0  0  0
    9.0395   -1.7356   25.6020 H   0  0  0  0  0  0  0  0  0  0  0  0
    9.0630   -0.0572   26.2418 H   0  0  0  0  0  0  0  0  0  0  0  0
    6.7474   -1.3871   24.9192 H   0  0  0  0  0  0  0  0  0  0  0  0
    5.2974    2.1640   24.2337 H   0  0  0  0  0  0  0  0  0  0  0  0
    6.7149    1.3682   23.4697 H   0  0  0  0  0  0  0  0  0  0  0  0
    5.1851    0.4541   23.6955 H   0  0  0  0  0  0  0  0  0  0  0  0
  1  2  2  0
  2  3  2  0
  2  4  1  6
  2  5  1  0
  4 22  1  0
  4 23  1  0
  5  6  2  0
  5  8  1  0
  6  7  1  0
  6 24  1  0
  7 10  2  0
  7 25  1  0
  8  9  2  0
  8 26  1  0
  9 10  1  0
  9 14  1  0
 10 11  1  0
 11 12  1  0
 11 27  1  6
 11 28  1  0
 12 13  1  0
 12 29  1  6
 12 30  1  0
 13 14  1  0
 13 31  1  6
 13 32  1  0
 14 15  1  0
 15 16  1  0
 15 33  1  6
 15 34  1  0
 16 17  1  0
 16 35  1  1
 16 36  1  0
 18 17  1  6
 17 37  1  0
 18 19  2  0
 18 20  2  0
 18 21  1  0
 21 38  1  1
 21 39  1  0
 21 40  1  0
M  END
$$$$
