LIG(A-307)
     RDKit          3D

 54 58  0  0  1  0  0  0  0  0999 V2000
    8.6222    6.8202   22.8006 N   0  0  0  0  0  0  0  0  0  0  0  0
    7.9513    5.9011   22.8156 C   0  0  0  0  0  0  0  0  0  0  0  0
    7.0465    4.7450   22.7926 C   0  0  1  0  0  0  0  0  0  0  0  0
    5.6905    4.9197   23.4398 C   0  0  1  0  0  0  0  0  0  0  0  0
    5.7933    4.9219   21.9628 C   0  0  2  0  0  0  0  0  0  0  0  0
    7.7337    3.3841   22.8194 C   0  0  1  0  0  0  0  0  0  0  0  0
    7.9590    2.6469   24.4262 S   0  0  2  0  0  0  0  0  0  0  0  0
    6.7261    2.0527   24.8373 O   0  0  0  0  0  0  0  0  0  0  0  0
    8.5760    3.6209   25.2703 O   0  0  0  0  0  0  0  0  0  0  0  0
    9.0281    1.4371   24.2250 N   0  0  0  0  0  0  0  0  0  0  0  0
   10.4302    1.6863   24.5778 C   0  0  1  0  0  0  0  0  0  0  0  0
    8.6543    0.0111   24.1809 C   0  0  1  0  0  0  0  0  0  0  0  0
    9.3662   -0.5857   22.9637 C   0  0  2  0  0  0  0  0  0  0  0  0
   10.8592   -0.2795   23.0085 C   0  0  0  0  0  0  0  0  0  0  0  0
   11.3301    0.8495   23.7016 C   0  0  0  0  0  0  0  0  0  0  0  0
   12.6761    1.1977   23.6054 C   0  0  0  0  0  0  0  0  0  0  0  0
   13.5601    0.4409   22.8602 C   0  0  0  0  0  0  0  0  0  0  0  0
   11.7642   -1.0613   22.2853 C   0  0  0  0  0  0  0  0  0  0  0  0
   13.0961   -0.6841   22.2191 C   0  0  0  0  0  0  0  0  0  0  0  0
   14.2031   -1.6299   21.2609 Cl  0  0  0  0  0  0  0  0  0  0  0  0
    8.7550    0.0624   21.7188 C   0  0  0  0  0  0  0  0  0  0  0  0
    9.2728    1.0305   21.1729 O   0  0  0  0  0  0  0  0  0  0  0  0
    7.5830   -0.4828   21.2969 N   0  0  0  0  0  0  0  0  0  0  0  0
    6.7858   -0.0558   20.2051 C   0  0  0  0  0  0  0  0  0  0  0  0
    5.6147    0.7301   20.4574 C   0  0  0  0  0  0  0  0  0  0  0  0
    5.0918    0.9758   21.7555 C   0  0  0  0  0  0  0  0  0  0  0  0
    3.9618    1.7267   21.9287 C   0  0  0  0  0  0  0  0  0  0  0  0
    3.2945    2.2677   20.8369 C   0  0  0  0  0  0  0  0  0  0  0  0
    3.7594    2.0639   19.5678 C   0  0  0  0  0  0  0  0  0  0  0  0
    4.9265    1.2901   19.3425 C   0  0  0  0  0  0  0  0  0  0  0  0
    5.4363    1.0233   18.0474 C   0  0  0  0  0  0  0  0  0  0  0  0
    6.5064    0.2805   17.8092 N   0  0  0  0  0  0  0  0  0  0  0  0
    7.1506   -0.2376   18.8670 C   0  0  0  0  0  0  0  0  0  0  0  0
    5.2157    4.0716   23.9548 H   0  0  0  0  0  0  0  0  0  0  0  0
    5.4544    5.8519   23.9740 H   0  0  0  0  0  0  0  0  0  0  0  0
    5.3949    4.0753   21.3844 H   0  0  0  0  0  0  0  0  0  0  0  0
    5.6335    5.8556   21.4036 H   0  0  0  0  0  0  0  0  0  0  0  0
    7.1302    2.6916   22.2143 H   0  0  0  0  0  0  0  0  0  0  0  0
    8.7270    3.5008   22.3615 H   0  0  0  0  0  0  0  0  0  0  0  0
   10.6614    2.7513   24.4285 H   0  0  0  0  0  0  0  0  0  0  0  0
   10.5950    1.4196   25.6321 H   0  0  0  0  0  0  0  0  0  0  0  0
    8.9821   -0.4966   25.0999 H   0  0  0  0  0  0  0  0  0  0  0  0
    7.5646   -0.0933   24.0731 H   0  0  0  0  0  0  0  0  0  0  0  0
    9.2074   -1.6738   22.9345 H   0  0  0  0  0  0  0  0  0  0  0  0
   13.0348    2.0752   24.1229 H   0  0  0  0  0  0  0  0  0  0  0  0
   14.5983    0.7280   22.7824 H   0  0  0  0  0  0  0  0  0  0  0  0
   11.4274   -1.9547   21.7806 H   0  0  0  0  0  0  0  0  0  0  0  0
    7.2468   -1.2706   21.8129 H   0  0  0  0  0  0  0  0  0  0  0  0
    5.5942    0.5637   22.6181 H   0  0  0  0  0  0  0  0  0  0  0  0
    3.5840    1.9009   22.9254 H   0  0  0  0  0  0  0  0  0  0  0  0
    2.4011    2.8543   20.9922 H   0  0  0  0  0  0  0  0  0  0  0  0
    3.2334    2.4958   18.7292 H   0  0  0  0  0  0  0  0  0  0  0  0
    4.9197    1.4527   17.2017 H   0  0  0  0  0  0  0  0  0  0  0  0
    8.0218   -0.8443   18.6686 H   0  0  0  0  0  0  0  0  0  0  0  0
  1  2  3  0
  3  2  1  1
  3  4  1  0
  3  5  1  0
  3  6  1  0
  4  5  1  0
  4 34  1  6
  4 35  1  0
  5 36  1  6
  5 37  1  0
  6  7  1  0
  6 38  1  6
  6 39  1  0
  7  8  2  0
  7  9  2  0
  7 10  1  6
 10 11  1  0
 10 12  1  0
 11 15  1  0
 11 40  1  1
 11 41  1  0
 12 13  1  0
 12 42  1  1
 12 43  1  0
 13 14  1  0
 13 21  1  0
 13 44  1  6
 14 15  2  0
 14 18  1  0
 15 16  1  0
 16 17  2  0
 16 45  1  0
 17 19  1  0
 17 46  1  0
 18 19  2  0
 18 47  1  0
 19 20  1  0
 21 22  2  0
 21 23  1  0
 23 24  1  0
 23 48  1  0
 24 25  2  0
 24 33  1  0
 25 26  1  0
 25 30  1  0
 26 27  2  0
 26 49  1  0
 27 28  1  0
 27 50  1  0
 28 29  2  0
 28 51  1  0
 29 30  1  0
 29 52  1  0
 30 31  2  0
 31 32  1  0
 31 53  1  0
 32 33  2  0
 33 54  1  0
M  END
$$$$
