LIG(A-306)
     RDKit          3D

 34 36  0  0  0  0  0  0  0  0999 V2000
    9.3390    0.9946   21.1661 O   0  0  0  0  0  0  0  0  0  0  0  0
    8.8530   -0.0585   21.5826 C   0  0  0  0  0  0  0  0  0  0  0  0
    9.5243   -0.8770   22.6693 C   0  0  1  0  0  0  0  0  0  0  0  0
   10.9869   -0.5356   22.8380 C   0  0  0  0  0  0  0  0  0  0  0  0
   11.3928    0.4573   23.7250 C   0  0  0  0  0  0  0  0  0  0  0  0
   12.7288    0.8234   23.8247 C   0  0  0  0  0  0  0  0  0  0  0  0
   13.6849    0.1968   23.0396 C   0  0  0  0  0  0  0  0  0  0  0  0
   11.9517   -1.1824   22.0705 C   0  0  0  0  0  0  0  0  0  0  0  0
   13.2635   -0.7937   22.1883 C   0  0  0  0  0  0  0  0  0  0  0  0
   14.1871   -1.4078   21.3985 F   0  0  0  0  0  0  0  0  0  0  0  0
    7.6949   -0.5785   21.1152 N   0  0  0  0  0  0  0  0  0  0  0  0
    6.9078   -0.0835   20.0560 C   0  0  0  0  0  0  0  0  0  0  0  0
    5.7550    0.7040   20.3691 C   0  0  0  0  0  0  0  0  0  0  0  0
    5.3223    0.9792   21.6923 C   0  0  0  0  0  0  0  0  0  0  0  0
    4.2368    1.7781   21.9257 C   0  0  0  0  0  0  0  0  0  0  0  0
    3.5264    2.3295   20.8697 C   0  0  0  0  0  0  0  0  0  0  0  0
    3.9011    2.0919   19.5779 C   0  0  0  0  0  0  0  0  0  0  0  0
    5.0257    1.2800   19.2912 C   0  0  0  0  0  0  0  0  0  0  0  0
    5.4929    1.0375   17.9734 C   0  0  0  0  0  0  0  0  0  0  0  0
    6.5648    0.3134   17.6826 N   0  0  0  0  0  0  0  0  0  0  0  0
    7.2431   -0.2282   18.7080 C   0  0  0  0  0  0  0  0  0  0  0  0
    9.0070   -0.6889   23.6216 H   0  0  0  0  0  0  0  0  0  0  0  0
    9.4395   -1.9426   22.4101 H   0  0  0  0  0  0  0  0  0  0  0  0
   10.6583    0.9501   24.3447 H   0  0  0  0  0  0  0  0  0  0  0  0
   13.0242    1.5988   24.5160 H   0  0  0  0  0  0  0  0  0  0  0  0
   14.7259    0.4787   23.0961 H   0  0  0  0  0  0  0  0  0  0  0  0
   11.6731   -1.9766   21.3938 H   0  0  0  0  0  0  0  0  0  0  0  0
    7.3609   -1.4038   21.5706 H   0  0  0  0  0  0  0  0  0  0  0  0
    5.8578    0.5517   22.5271 H   0  0  0  0  0  0  0  0  0  0  0  0
    3.9302    1.9813   22.9412 H   0  0  0  0  0  0  0  0  0  0  0  0
    2.6680    2.9532   21.0710 H   0  0  0  0  0  0  0  0  0  0  0  0
    3.3348    2.5270   18.7677 H   0  0  0  0  0  0  0  0  0  0  0  0
    4.9392    1.4711   17.1538 H   0  0  0  0  0  0  0  0  0  0  0  0
    8.1144   -0.8210   18.4718 H   0  0  0  0  0  0  0  0  0  0  0  0
  1  2  2  0
  2  3  1  0
  2 11  1  0
  3  4  1  0
  3 22  1  1
  3 23  1  0
  4  5  2  0
  4  8  1  0
  5  6  1  0
  5 24  1  0
  6  7  2  0
  6 25  1  0
  7  9  1  0
  7 26  1  0
  8  9  2  0
  8 27  1  0
  9 10  1  0
 11 12  1  0
 11 28  1  0
 12 13  2  0
 12 21  1  0
 13 14  1  0
 13 18  1  0
 14 15  2  0
 14 29  1  0
 15 16  1  0
 15 30  1  0
 16 17  2  0
 16 31  1  0
 17 18  1  0
 17 32  1  0
 18 19  2  0
 19 20  1  0
 19 33  1  0
 20 21  2  0
 21 34  1  0
M  END
$$$$
