LIG(A-306)
     RDKit          3D

 41 45  0  0  1  0  0  0  0  0999 V2000
   -9.6515    1.1782  -20.9926 O   0  0  0  0  0  0  0  0  0  0  0  0
   -9.3028    0.1109  -21.4532 C   0  0  0  0  0  0  0  0  0  0  0  0
   -9.9103   -0.5904  -22.6902 C   0  0  2  0  0  0  0  0  0  0  0  0
   -9.3197    0.1393  -23.9181 C   0  0  1  0  0  0  0  0  0  0  0  0
  -10.3647    0.5438  -24.9399 C   0  0  1  0  0  0  0  0  0  0  0  0
  -11.4992    1.1782  -24.3347 O   0  0  0  0  0  0  0  0  0  0  0  0
  -11.4340   -0.5586  -22.6413 C   0  0  0  0  0  0  0  0  0  0  0  0
  -12.1312    0.3614  -23.4327 C   0  0  0  0  0  0  0  0  0  0  0  0
  -13.5115    0.4605  -23.3983 C   0  0  0  0  0  0  0  0  0  0  0  0
  -14.2281   -0.3716  -22.5587 C   0  0  0  0  0  0  0  0  0  0  0  0
  -12.1732   -1.4068  -21.8150 C   0  0  0  0  0  0  0  0  0  0  0  0
  -13.5535   -1.2785  -21.7701 C   0  0  0  0  0  0  0  0  0  0  0  0
  -14.4554   -2.2235  -20.6133 Cl  0  0  0  0  0  0  0  0  0  0  0  0
   -8.3189   -0.7450  -20.9547 N   0  0  0  0  0  0  0  0  0  0  0  0
   -8.3465   -1.9820  -21.6090 C   0  0  0  0  0  0  0  0  0  0  0  0
   -7.6139   -2.9279  -21.3658 O   0  0  0  0  0  0  0  0  0  0  0  0
   -9.3289   -1.9209  -22.5409 N   0  0  0  0  0  0  0  0  0  0  0  0
   -7.3893   -0.3897  -19.9011 C   0  0  0  0  0  0  0  0  0  0  0  0
   -6.2723    0.4505  -20.2024 C   0  0  0  0  0  0  0  0  0  0  0  0
   -5.8266    0.7640  -21.5136 C   0  0  0  0  0  0  0  0  0  0  0  0
   -4.7575    1.5910  -21.7179 C   0  0  0  0  0  0  0  0  0  0  0  0
   -4.0751    2.1434  -20.6435 C   0  0  0  0  0  0  0  0  0  0  0  0
   -4.4599    1.8718  -19.3620 C   0  0  0  0  0  0  0  0  0  0  0  0
   -5.5632    1.0223  -19.1048 C   0  0  0  0  0  0  0  0  0  0  0  0
   -6.0134    0.7197  -17.7957 C   0  0  0  0  0  0  0  0  0  0  0  0
   -7.0512   -0.0580  -17.5258 N   0  0  0  0  0  0  0  0  0  0  0  0
   -7.7147   -0.5910  -18.5628 C   0  0  0  0  0  0  0  0  0  0  0  0
   -8.8037    1.0461  -23.5696 H   0  0  0  0  0  0  0  0  0  0  0  0
   -8.5958   -0.5298  -24.4062 H   0  0  0  0  0  0  0  0  0  0  0  0
   -9.9079    1.2434  -25.6553 H   0  0  0  0  0  0  0  0  0  0  0  0
  -10.7051   -0.3560  -25.4733 H   0  0  0  0  0  0  0  0  0  0  0  0
  -14.0229    1.1799  -24.0206 H   0  0  0  0  0  0  0  0  0  0  0  0
  -15.3057   -0.3116  -22.5210 H   0  0  0  0  0  0  0  0  0  0  0  0
  -11.6753   -2.1554  -21.2166 H   0  0  0  0  0  0  0  0  0  0  0  0
   -9.6269   -2.7120  -23.0752 H   0  0  0  0  0  0  0  0  0  0  0  0
   -6.3410    0.3418  -22.3642 H   0  0  0  0  0  0  0  0  0  0  0  0
   -4.4408    1.8167  -22.7255 H   0  0  0  0  0  0  0  0  0  0  0  0
   -3.2319    2.7941  -20.8226 H   0  0  0  0  0  0  0  0  0  0  0  0
   -3.9176    2.3090  -18.5367 H   0  0  0  0  0  0  0  0  0  0  0  0
   -5.4757    1.1510  -16.9643 H   0  0  0  0  0  0  0  0  0  0  0  0
   -8.5630   -1.2223  -18.3433 H   0  0  0  0  0  0  0  0  0  0  0  0
  1  2  2  0
  2  3  1  0
  2 14  1  0
  3  4  1  0
  3  7  1  0
  3 17  1  6
  4  5  1  0
  4 28  1  1
  4 29  1  0
  5  6  1  0
  5 30  1  6
  5 31  1  0
  6  8  1  0
  7  8  2  0
  7 11  1  0
  8  9  1  0
  9 10  2  0
  9 32  1  0
 10 12  1  0
 10 33  1  0
 11 12  2  0
 11 34  1  0
 12 13  1  0
 14 15  1  0
 14 18  1  0
 15 16  2  0
 15 17  1  0
 17 35  1  0
 18 19  2  0
 18 27  1  0
 19 20  1  0
 19 24  1  0
 20 21  2  0
 20 36  1  0
 21 22  1  0
 21 37  1  0
 22 23  2  0
 22 38  1  0
 23 24  1  0
 23 39  1  0
 24 25  2  0
 25 26  1  0
 25 40  1  0
 26 27  2  0
 27 41  1  0
M  END
$$$$
