LIG(A-306)
     RDKit          3D

 55 58  0  0  1  0  0  0  0  0999 V2000
   14.0544   -1.5883   21.4441 Cl  0  0  0  0  0  0  0  0  0  0  0  0
   12.8602   -0.8355   22.4715 C   0  0  0  0  0  0  0  0  0  0  0  0
   11.5317   -1.2068   22.3507 C   0  0  0  0  0  0  0  0  0  0  0  0
   13.2616    0.1136   23.3796 C   0  0  0  0  0  0  0  0  0  0  0  0
   12.3198    0.6828   24.2149 C   0  0  0  0  0  0  0  0  0  0  0  0
   10.9727    0.3423   24.1233 C   0  0  0  0  0  0  0  0  0  0  0  0
    9.9886    1.0395   25.0356 C   0  0  1  0  0  0  0  0  0  0  0  0
    8.6158    0.8309   24.5597 N   0  0  0  0  0  0  0  0  0  0  0  0
    7.4903    1.6836   25.3079 S   0  0  2  0  0  0  0  0  0  0  0  0
    7.7713    1.5838   26.6993 O   0  0  0  0  0  0  0  0  0  0  0  0
    6.2347    1.2673   24.7881 O   0  0  0  0  0  0  0  0  0  0  0  0
    7.7565    3.1949   24.8550 N   0  0  0  0  0  0  0  0  0  0  0  0
    8.2472    4.2847   25.7289 C   0  0  1  0  0  0  0  0  0  0  0  0
    7.1320    5.1143   26.3286 C   0  0  1  0  0  0  0  0  0  0  0  0
    7.4662    5.5331   27.6491 O   0  0  0  0  0  0  0  0  0  0  0  0
    7.4909    3.5769   23.4659 C   0  0  1  0  0  0  0  0  0  0  0  0
   10.5693   -0.6031   23.1652 C   0  0  0  0  0  0  0  0  0  0  0  0
    9.0954   -0.9267   22.9838 C   0  0  1  0  0  0  0  0  0  0  0  0
    8.3057   -0.5765   24.2468 C   0  0  2  0  0  0  0  0  0  0  0  0
    8.5582   -0.1286   21.7913 C   0  0  0  0  0  0  0  0  0  0  0  0
    9.1290    0.8794   21.3670 O   0  0  0  0  0  0  0  0  0  0  0  0
    7.4131   -0.6153   21.2445 N   0  0  0  0  0  0  0  0  0  0  0  0
    6.7129   -0.1147   20.1236 C   0  0  0  0  0  0  0  0  0  0  0  0
    5.5784    0.7339   20.3337 C   0  0  0  0  0  0  0  0  0  0  0  0
    5.0255    1.0108   21.6110 C   0  0  0  0  0  0  0  0  0  0  0  0
    3.9442    1.8371   21.7458 C   0  0  0  0  0  0  0  0  0  0  0  0
    3.3730    2.4443   20.6317 C   0  0  0  0  0  0  0  0  0  0  0  0
    3.8688    2.2103   19.3812 C   0  0  0  0  0  0  0  0  0  0  0  0
    4.9713    1.3387   19.1945 C   0  0  0  0  0  0  0  0  0  0  0  0
    5.5077    1.0310   17.9178 C   0  0  0  0  0  0  0  0  0  0  0  0
    6.5487    0.2333   17.7213 N   0  0  0  0  0  0  0  0  0  0  0  0
    7.1241   -0.3143   18.8030 C   0  0  0  0  0  0  0  0  0  0  0  0
   11.2409   -1.9583   21.6315 H   0  0  0  0  0  0  0  0  0  0  0  0
   14.2982    0.4106   23.4397 H   0  0  0  0  0  0  0  0  0  0  0  0
   12.6344    1.4057   24.9531 H   0  0  0  0  0  0  0  0  0  0  0  0
   10.0857    0.6322   26.0528 H   0  0  0  0  0  0  0  0  0  0  0  0
   10.2078    2.1173   25.0497 H   0  0  0  0  0  0  0  0  0  0  0  0
    8.8317    3.8401   26.5479 H   0  0  0  0  0  0  0  0  0  0  0  0
    8.8941    4.9460   25.1338 H   0  0  0  0  0  0  0  0  0  0  0  0
    6.9649    6.0016   25.7004 H   0  0  0  0  0  0  0  0  0  0  0  0
    6.2127    4.5113   26.3635 H   0  0  0  0  0  0  0  0  0  0  0  0
    7.0199    4.9803   28.2796 H   0  0  0  0  0  0  0  0  0  0  0  0
    7.7256    4.6425   23.3269 H   0  0  0  0  0  0  0  0  0  0  0  0
    8.1175    2.9727   22.7934 H   0  0  0  0  0  0  0  0  0  0  0  0
    6.4299    3.4020   23.2341 H   0  0  0  0  0  0  0  0  0  0  0  0
    8.9837   -2.0011   22.7764 H   0  0  0  0  0  0  0  0  0  0  0  0
    7.2273   -0.6965   24.0659 H   0  0  0  0  0  0  0  0  0  0  0  0
    8.6125   -1.2270   25.0791 H   0  0  0  0  0  0  0  0  0  0  0  0
    7.0203   -1.4215   21.6868 H   0  0  0  0  0  0  0  0  0  0  0  0
    5.4651    0.5623   22.4897 H   0  0  0  0  0  0  0  0  0  0  0  0
    3.5297    2.0202   22.7262 H   0  0  0  0  0  0  0  0  0  0  0  0
    2.5294    3.1069   20.7573 H   0  0  0  0  0  0  0  0  0  0  0  0
    3.4173    2.6932   18.5271 H   0  0  0  0  0  0  0  0  0  0  0  0
    5.0390    1.4741   17.0516 H   0  0  0  0  0  0  0  0  0  0  0  0
    7.9732   -0.9614   18.6397 H   0  0  0  0  0  0  0  0  0  0  0  0
  1  2  1  0
  2  3  2  0
  2  4  1  0
  3 17  1  0
  3 33  1  0
  4  5  2  0
  4 34  1  0
  5  6  1  0
  5 35  1  0
  6  7  1  0
  6 17  2  0
  7  8  1  0
  7 36  1  1
  7 37  1  0
  8  9  1  0
  8 19  1  0
  9 10  2  0
  9 11  2  0
  9 12  1  6
 12 13  1  0
 12 16  1  0
 13 14  1  0
 13 38  1  1
 13 39  1  0
 14 15  1  0
 14 40  1  6
 14 41  1  0
 15 42  1  0
 16 43  1  1
 16 44  1  0
 16 45  1  0
 17 18  1  0
 18 19  1  0
 18 20  1  0
 18 46  1  6
 19 47  1  6
 19 48  1  0
 20 21  2  0
 20 22  1  0
 22 23  1  0
 22 49  1  0
 23 24  2  0
 23 32  1  0
 24 25  1  0
 24 29  1  0
 25 26  2  0
 25 50  1  0
 26 27  1  0
 26 51  1  0
 27 28  2  0
 27 52  1  0
 28 29  1  0
 28 53  1  0
 29 30  2  0
 30 31  1  0
 30 54  1  0
 31 32  2  0
 32 55  1  0
M  END
$$$$
