LIG(A-305)
     RDKit          3D

 33 34  0  0  0  0  0  0  0  0999 V2000
    5.2993   -4.8671   26.1236 N   0  0  0  0  0  0  0  0  0  0  0  0
    6.7563   -4.9931   26.2035 C   0  0  0  0  0  0  0  0  0  0  0  0
    4.6682   -5.7441   25.5557 O   0  0  0  0  0  0  0  0  0  0  0  0
    7.2774   -5.3941   27.4275 C   0  0  0  0  0  0  0  0  0  0  0  0
    6.4149   -3.9284   19.8525 C   0  0  0  0  0  0  0  0  0  0  0  0
    7.0319   -2.8244   19.0484 C   0  0  1  0  0  0  0  0  0  0  0  0
    8.6424   -5.5331   27.5764 C   0  0  0  0  0  0  0  0  0  0  0  0
    9.4923   -5.2761   26.5174 C   0  0  0  0  0  0  0  0  0  0  0  0
    8.9842   -4.8732   25.2934 C   0  0  0  0  0  0  0  0  0  0  0  0
    7.6112   -4.7252   25.1085 C   0  0  0  0  0  0  0  0  0  0  0  0
    7.5131   -3.1042   23.1774 C   0  0  1  0  0  0  0  0  0  0  0  0
    7.9680   -3.4263   21.7704 C   0  0  1  0  0  0  0  0  0  0  0  0
    6.5670   -5.4263   21.7725 C   0  0  1  0  0  0  0  0  0  0  0  0
    6.0621   -5.0692   23.1496 C   0  0  1  0  0  0  0  0  0  0  0  0
    7.0851   -4.3182   23.8835 N   0  0  0  0  0  0  0  0  0  0  0  0
    6.9570   -4.2133   21.0555 N   0  0  0  0  0  0  0  0  0  0  0  0
    4.7713   -3.9111   26.6676 O   0  0  0  0  0  0  0  0  0  0  0  0
    5.4929   -4.5734   19.3776 O   0  0  0  0  0  0  0  0  0  0  0  0
    6.6175   -5.5959   28.2582 H   0  0  0  0  0  0  0  0  0  0  0  0
    6.5251   -2.7518   18.0748 H   0  0  0  0  0  0  0  0  0  0  0  0
    6.9243   -1.8727   19.5894 H   0  0  0  0  0  0  0  0  0  0  0  0
    8.0994   -3.0381   18.8910 H   0  0  0  0  0  0  0  0  0  0  0  0
    9.0491   -5.8448   28.5271 H   0  0  0  0  0  0  0  0  0  0  0  0
   10.5587   -5.3901   26.6448 H   0  0  0  0  0  0  0  0  0  0  0  0
    9.6589   -4.6718   24.4744 H   0  0  0  0  0  0  0  0  0  0  0  0
    8.3462   -2.6428   23.7279 H   0  0  0  0  0  0  0  0  0  0  0  0
    6.6698   -2.3995   23.1302 H   0  0  0  0  0  0  0  0  0  0  0  0
    8.1433   -2.4869   21.2256 H   0  0  0  0  0  0  0  0  0  0  0  0
    8.9038   -4.0024   21.8184 H   0  0  0  0  0  0  0  0  0  0  0  0
    7.4382   -6.0915   21.8646 H   0  0  0  0  0  0  0  0  0  0  0  0
    5.7708   -5.9401   21.2140 H   0  0  0  0  0  0  0  0  0  0  0  0
    5.1558   -4.4529   23.0560 H   0  0  0  0  0  0  0  0  0  0  0  0
    5.8233   -5.9914   23.6997 H   0  0  0  0  0  0  0  0  0  0  0  0
  1  2  1  0
  1  3  2  0
  1 17  2  0
  2  4  2  0
  2 10  1  0
  4  7  1  0
  4 19  1  0
  5  6  1  0
  5 16  1  0
  5 18  2  0
  6 20  1  6
  6 21  1  0
  6 22  1  0
  7  8  2  0
  7 23  1  0
  8  9  1  0
  8 24  1  0
  9 10  2  0
  9 25  1  0
 10 15  1  0
 11 12  1  0
 11 15  1  0
 11 26  1  1
 11 27  1  0
 12 16  1  0
 12 28  1  6
 12 29  1  0
 13 14  1  0
 13 16  1  0
 13 30  1  1
 13 31  1  0
 14 15  1  0
 14 32  1  6
 14 33  1  0
M  END
$$$$
