LIG(A-305)
     RDKit          3D

 52 55  0  0  0  0  0  0  0  0999 V2000
    9.2640    0.9692   21.1230 O   0  0  0  0  0  0  0  0  0  0  0  0
    8.8990   -0.0638   21.6670 C   0  0  0  0  0  0  0  0  0  0  0  0
    7.9000   -0.9769   20.9790 C   0  0  1  0  0  0  0  0  0  0  0  0
    7.0420   -0.2459   19.9660 C   0  0  0  0  0  0  0  0  0  0  0  0
    5.9090    0.5081   20.3759 C   0  0  0  0  0  0  0  0  0  0  0  0
    5.5030    0.6301   21.7309 C   0  0  0  0  0  0  0  0  0  0  0  0
    4.4219    1.3910   22.0749 C   0  0  0  0  0  0  0  0  0  0  0  0
    3.6969    2.0680   21.1069 C   0  0  0  0  0  0  0  0  0  0  0  0
    4.0369    1.9710   19.7879 C   0  0  0  0  0  0  0  0  0  0  0  0
    5.1470    1.1860   19.3869 C   0  0  0  0  0  0  0  0  0  0  0  0
    5.5580    1.0470   18.0409 C   0  0  0  0  0  0  0  0  0  0  0  0
    6.6180    0.3460   17.6600 N   0  0  0  0  0  0  0  0  0  0  0  0
    7.3290   -0.2709   18.6150 C   0  0  0  0  0  0  0  0  0  0  0  0
    9.3780   -0.4418   22.8890 N   0  0  0  0  0  0  0  0  0  0  0  0
   10.4020    0.3942   23.5080 C   0  0  1  0  0  0  0  0  0  0  0  0
   11.8020   -0.0137   23.1280 C   0  0  0  0  0  0  0  0  0  0  0  0
   12.0540   -0.9297   22.1460 C   0  0  0  0  0  0  0  0  0  0  0  0
   13.7140   -1.2757   21.9840 S   0  0  0  0  0  0  0  0  0  0  0  0
   14.1150   -0.1667   23.2440 C   0  0  0  0  0  0  0  0  0  0  0  0
   12.9990    0.4283   23.7530 C   0  0  0  0  0  0  0  0  0  0  0  0
    8.9600   -1.6248   23.5860 C   0  0  0  0  0  0  0  0  0  0  0  0
    8.0680   -1.5278   24.6500 C   0  0  0  0  0  0  0  0  0  0  0  0
    7.7970   -2.6298   25.4430 C   0  0  0  0  0  0  0  0  0  0  0  0
    9.5461   -2.8568   23.3020 C   0  0  0  0  0  0  0  0  0  0  0  0
    9.2711   -3.9648   24.0880 C   0  0  0  0  0  0  0  0  0  0  0  0
    8.4061   -3.8698   25.1880 C   0  0  0  0  0  0  0  0  0  0  0  0
    8.1961   -4.9568   26.0240 N   0  0  0  0  0  0  0  0  0  0  0  0
    9.2541   -5.9328   26.2321 C   0  0  1  0  0  0  0  0  0  0  0  0
    7.3171   -4.8518   27.1810 C   0  0  1  0  0  0  0  0  0  0  0  0
    8.4514   -1.7761   20.4620 H   0  0  0  0  0  0  0  0  0  0  0  0
    7.2434   -1.4193   21.7426 H   0  0  0  0  0  0  0  0  0  0  0  0
    6.0569    0.1137   22.5010 H   0  0  0  0  0  0  0  0  0  0  0  0
    4.1292    1.4659   23.1118 H   0  0  0  0  0  0  0  0  0  0  0  0
    2.8549    2.6782   21.3986 H   0  0  0  0  0  0  0  0  0  0  0  0
    3.4556    2.4964   19.0446 H   0  0  0  0  0  0  0  0  0  0  0  0
    4.9743    1.5407   17.2780 H   0  0  0  0  0  0  0  0  0  0  0  0
    8.1966   -0.8331   18.3025 H   0  0  0  0  0  0  0  0  0  0  0  0
   10.2422    1.4358   23.1926 H   0  0  0  0  0  0  0  0  0  0  0  0
   10.3001    0.3224   24.6009 H   0  0  0  0  0  0  0  0  0  0  0  0
   11.2851   -1.3846   21.5391 H   0  0  0  0  0  0  0  0  0  0  0  0
   15.1205    0.0306   23.5853 H   0  0  0  0  0  0  0  0  0  0  0  0
   13.0222    1.1590   24.5479 H   0  0  0  0  0  0  0  0  0  0  0  0
    7.5834   -0.5854   24.8587 H   0  0  0  0  0  0  0  0  0  0  0  0
    7.1079   -2.5349   26.2691 H   0  0  0  0  0  0  0  0  0  0  0  0
   10.2198   -2.9490   22.4629 H   0  0  0  0  0  0  0  0  0  0  0  0
    9.7288   -4.9137   23.8503 H   0  0  0  0  0  0  0  0  0  0  0  0
    8.9021   -6.7148   26.9210 H   0  0  0  0  0  0  0  0  0  0  0  0
    9.5270   -6.3886   25.2688 H   0  0  0  0  0  0  0  0  0  0  0  0
   10.1340   -5.4331   26.6636 H   0  0  0  0  0  0  0  0  0  0  0  0
    7.2870   -5.8168   27.7080 H   0  0  0  0  0  0  0  0  0  0  0  0
    7.6970   -4.0747   27.8606 H   0  0  0  0  0  0  0  0  0  0  0  0
    6.3034   -4.5842   26.8481 H   0  0  0  0  0  0  0  0  0  0  0  0
  1  2  2  0
  2  3  1  0
  2 14  1  0
  3  4  1  0
  3 30  1  6
  3 31  1  0
  4  5  2  0
  4 13  1  0
  5  6  1  0
  5 10  1  0
  6  7  2  0
  6 32  1  0
  7  8  1  0
  7 33  1  0
  8  9  2  0
  8 34  1  0
  9 10  1  0
  9 35  1  0
 10 11  2  0
 11 12  1  0
 11 36  1  0
 12 13  2  0
 13 37  1  0
 14 15  1  0
 14 21  1  0
 15 16  1  0
 15 38  1  6
 15 39  1  0
 16 17  2  0
 16 20  1  0
 17 18  1  0
 17 40  1  0
 18 19  1  0
 19 20  2  0
 19 41  1  0
 20 42  1  0
 21 22  2  0
 21 24  1  0
 22 23  1  0
 22 43  1  0
 23 26  2  0
 23 44  1  0
 24 25  2  0
 24 45  1  0
 25 26  1  0
 25 46  1  0
 26 27  1  0
 27 28  1  0
 27 29  1  0
 28 47  1  1
 28 48  1  0
 28 49  1  0
 29 50  1  1
 29 51  1  0
 29 52  1  0
M  END
$$$$
