LIG(A-305)
     RDKit          3D

 31 32  0  0  0  0  0  0  0  0999 V2000
   13.8742   -1.8062   21.2361 Cl  0  0  0  0  0  0  0  0  0  0  0  0
   12.6622   -1.0581   22.2361 C   0  0  0  0  0  0  0  0  0  0  0  0
   13.0452   -0.1571   23.2040 C   0  0  0  0  0  0  0  0  0  0  0  0
   12.0713    0.3829   24.0290 C   0  0  0  0  0  0  0  0  0  0  0  0
   10.7363    0.0509   23.8450 C   0  0  0  0  0  0  0  0  0  0  0  0
   11.3412   -1.4062   22.0481 C   0  0  0  0  0  0  0  0  0  0  0  0
   10.3573   -0.8331   22.8451 C   0  0  0  0  0  0  0  0  0  0  0  0
    8.9003   -1.1172   22.5631 C   0  0  1  0  0  0  0  0  0  0  0  0
    8.4492   -0.3092   21.3641 C   0  0  0  0  0  0  0  0  0  0  0  0
    9.0312    0.7138   21.0220 O   0  0  0  0  0  0  0  0  0  0  0  0
    7.3532   -0.7793   20.7431 N   0  0  0  0  0  0  0  0  0  0  0  0
    6.6302   -0.1163   19.7301 C   0  0  0  0  0  0  0  0  0  0  0  0
    7.0172   -0.1454   18.3951 C   0  0  0  0  0  0  0  0  0  0  0  0
    6.3892    0.5355   17.4351 N   0  0  0  0  0  0  0  0  0  0  0  0
    5.3382    1.2866   17.7930 C   0  0  0  0  0  0  0  0  0  0  0  0
    5.5362    0.6737   20.0691 C   0  0  0  0  0  0  0  0  0  0  0  0
    4.8722    1.4046   19.0970 C   0  0  0  0  0  0  0  0  0  0  0  0
    3.7032    2.2946   19.4460 C   0  0  1  0  0  0  0  0  0  0  0  0
   14.0821    0.1228   23.3180 H   0  0  0  0  0  0  0  0  0  0  0  0
   12.3522    1.0648   24.8181 H   0  0  0  0  0  0  0  0  0  0  0  0
    9.9844    0.4853   24.4871 H   0  0  0  0  0  0  0  0  0  0  0  0
   11.0723   -2.1211   21.2846 H   0  0  0  0  0  0  0  0  0  0  0  0
    8.7701   -2.1890   22.3526 H   0  0  0  0  0  0  0  0  0  0  0  0
    8.2967   -0.8397   23.4398 H   0  0  0  0  0  0  0  0  0  0  0  0
    7.0211   -1.6795   21.0249 H   0  0  0  0  0  0  0  0  0  0  0  0
    7.8693   -0.7498   18.1214 H   0  0  0  0  0  0  0  0  0  0  0  0
    4.8208    1.8344   17.0193 H   0  0  0  0  0  0  0  0  0  0  0  0
    5.2027    0.7174   21.0954 H   0  0  0  0  0  0  0  0  0  0  0  0
    3.3309    2.7858   18.5349 H   0  0  0  0  0  0  0  0  0  0  0  0
    2.9001    1.6878   19.8896 H   0  0  0  0  0  0  0  0  0  0  0  0
    4.0269    3.0587   20.1681 H   0  0  0  0  0  0  0  0  0  0  0  0
  1  2  1  0
  2  3  2  0
  2  6  1  0
  3  4  1  0
  3 19  1  0
  4  5  2  0
  4 20  1  0
  5  7  1  0
  5 21  1  0
  6  7  2  0
  6 22  1  0
  7  8  1  0
  8  9  1  0
  8 23  1  6
  8 24  1  0
  9 10  2  0
  9 11  1  0
 11 12  1  0
 11 25  1  0
 12 13  2  0
 12 16  1  0
 13 14  1  0
 13 26  1  0
 14 15  2  0
 15 17  1  0
 15 27  1  0
 16 17  2  0
 16 28  1  0
 17 18  1  0
 18 29  1  6
 18 30  1  0
 18 31  1  0
M  END
$$$$
