LIG(A-306)
     RDKit          3D

 36 38  0  0  0  0  0  0  0  0999 V2000
   14.0382   -1.4616   21.6317 Cl  0  0  0  0  0  0  0  0  0  0  0  0
   12.7612   -0.7507   22.5798 C   0  0  0  0  0  0  0  0  0  0  0  0
   13.0791    0.1762   23.5538 C   0  0  0  0  0  0  0  0  0  0  0  0
   12.0621    0.6781   24.3499 C   0  0  0  0  0  0  0  0  0  0  0  0
   10.7501    0.2800   24.1399 C   0  0  0  0  0  0  0  0  0  0  0  0
   11.4592   -1.1568   22.3608 C   0  0  0  0  0  0  0  0  0  0  0  0
   10.4322   -0.6259   23.1338 C   0  0  0  0  0  0  0  0  0  0  0  0
    8.9922   -0.9640   22.8219 C   0  0  1  0  0  0  0  0  0  0  0  0
    8.4231   -0.0920   21.7219 C   0  0  0  0  0  0  0  0  0  0  0  0
    8.9650    0.9601   21.3729 O   0  0  0  0  0  0  0  0  0  0  0  0
    7.2981   -0.5711   21.1569 N   0  0  0  0  0  0  0  0  0  0  0  0
    6.6301   -0.0770   20.0199 C   0  0  0  0  0  0  0  0  0  0  0  0
    7.0841   -0.2600   18.7139 C   0  0  0  0  0  0  0  0  0  0  0  0
    6.5150    0.2711   17.6230 N   0  0  0  0  0  0  0  0  0  0  0  0
    5.4519    1.0420   17.7990 C   0  0  0  0  0  0  0  0  0  0  0  0
    4.8759    1.3309   19.0610 C   0  0  0  0  0  0  0  0  0  0  0  0
    5.4690    0.7319   20.2080 C   0  0  0  0  0  0  0  0  0  0  0  0
    4.8710    0.9728   21.4720 C   0  0  0  0  0  0  0  0  0  0  0  0
    3.7680    1.7667   21.5911 C   0  0  0  0  0  0  0  0  0  0  0  0
    3.7489    2.1668   19.2251 C   0  0  0  0  0  0  0  0  0  0  0  0
    3.1959    2.3807   20.4641 C   0  0  0  0  0  0  0  0  0  0  0  0
    1.9848    3.2436   20.5952 C   0  0  0  0  0  0  0  0  0  0  0  0
    1.5998    3.9646   19.6692 O   0  0  0  0  0  0  0  0  0  0  0  0
    1.3509    3.1465   21.7332 O   0  0  0  0  0  0  0  0  0  0  0  0
   14.0993    0.5028   23.6918 H   0  0  0  0  0  0  0  0  0  0  0  0
   12.2917    1.3816   25.1365 H   0  0  0  0  0  0  0  0  0  0  0  0
    9.9654    0.6788   24.7657 H   0  0  0  0  0  0  0  0  0  0  0  0
   11.2397   -1.8835   21.5926 H   0  0  0  0  0  0  0  0  0  0  0  0
    8.9364   -2.0157   22.5043 H   0  0  0  0  0  0  0  0  0  0  0  0
    8.3905   -0.8234   23.7319 H   0  0  0  0  0  0  0  0  0  0  0  0
    6.8895   -1.3711   21.5962 H   0  0  0  0  0  0  0  0  0  0  0  0
    7.9598   -0.8757   18.5711 H   0  0  0  0  0  0  0  0  0  0  0  0
    4.9946    1.4787   16.9235 H   0  0  0  0  0  0  0  0  0  0  0  0
    5.2965    0.5197   22.3553 H   0  0  0  0  0  0  0  0  0  0  0  0
    3.3285    1.9254   22.5648 H   0  0  0  0  0  0  0  0  0  0  0  0
    3.3141    2.6464   18.3605 H   0  0  0  0  0  0  0  0  0  0  0  0
  1  2  1  0
  2  3  2  0
  2  6  1  0
  3  4  1  0
  3 25  1  0
  4  5  2  0
  4 26  1  0
  5  7  1  0
  5 27  1  0
  6  7  2  0
  6 28  1  0
  7  8  1  0
  8  9  1  0
  8 29  1  6
  8 30  1  0
  9 10  2  0
  9 11  1  0
 11 12  1  0
 11 31  1  0
 12 13  2  0
 12 17  1  0
 13 14  1  0
 13 32  1  0
 14 15  2  0
 15 16  1  0
 15 33  1  0
 16 17  2  0
 16 20  1  0
 17 18  1  0
 18 19  2  0
 18 34  1  0
 19 21  1  0
 19 35  1  0
 20 21  2  0
 20 36  1  0
 21 22  1  0
 22 23  2  0
 22 24  1  0
M  CHG  1  24  -1
M  END
$$$$
