LIG(A-305)
     RDKit          3D

 40 41  0  0  0  0  0  0  0  0999 V2000
    8.9684    0.5413   20.7824 O   0  0  0  0  0  0  0  0  0  0  0  0
    8.1845   -0.1747   21.4005 C   0  0  0  0  0  0  0  0  0  0  0  0
    8.5568   -0.7586   22.7525 C   0  0  1  0  0  0  0  0  0  0  0  0
    9.9888   -0.6585   23.0033 N   0  0  1  0  0  0  0  0  0  0  0  0
   10.2920   -0.8305   24.4412 C   0  0  1  0  0  0  0  0  0  0  0  0
   11.7941   -0.7134   24.7080 C   0  0  1  0  0  0  0  0  0  0  0  0
   10.7207   -1.6535   22.1962 C   0  0  1  0  0  0  0  0  0  0  0  0
   12.2227   -1.5404   22.4080 C   0  0  1  0  0  0  0  0  0  0  0  0
   12.5870   -1.7054   23.8719 C   0  0  1  0  0  0  0  0  0  0  0  0
   14.0800   -1.5983   24.1077 C   0  0  1  0  0  0  0  0  0  0  0  0
    6.9405   -0.4818   20.9767 N   0  0  0  0  0  0  0  0  0  0  0  0
    6.3113    0.1022   19.8518 C   0  0  0  0  0  0  0  0  0  0  0  0
    5.1493    0.8651   20.0340 C   0  0  0  0  0  0  0  0  0  0  0  0
    4.5095    1.0341   21.3891 C   0  0  1  0  0  0  0  0  0  0  0  0
    4.6161    1.4951   18.9130 C   0  0  0  0  0  0  0  0  0  0  0  0
    5.2409    1.3511   17.6859 C   0  0  0  0  0  0  0  0  0  0  0  0
    6.3469    0.6211   17.4978 N   0  0  0  0  0  0  0  0  0  0  0  0
    6.8641    0.0092   18.5687 C   0  0  0  0  0  0  0  0  0  0  0  0
    8.0173   -0.2105   23.5390 H   0  0  0  0  0  0  0  0  0  0  0  0
    8.2631   -1.8184   22.7769 H   0  0  0  0  0  0  0  0  0  0  0  0
   10.2948    0.2528   22.7276 H   0  0  0  0  0  0  0  0  0  0  0  0
    9.7643   -0.0541   25.0145 H   0  0  0  0  0  0  0  0  0  0  0  0
    9.9465   -1.8235   24.7645 H   0  0  0  0  0  0  0  0  0  0  0  0
   12.1229    0.3066   24.4598 H   0  0  0  0  0  0  0  0  0  0  0  0
   11.9844   -0.9110   25.7732 H   0  0  0  0  0  0  0  0  0  0  0  0
   10.3928   -2.6623   22.4875 H   0  0  0  0  0  0  0  0  0  0  0  0
   10.4955   -1.4877   21.1324 H   0  0  0  0  0  0  0  0  0  0  0  0
   12.7271   -2.3235   21.8228 H   0  0  0  0  0  0  0  0  0  0  0  0
   12.5596   -0.5513   22.0641 H   0  0  0  0  0  0  0  0  0  0  0  0
   12.2762   -2.7154   24.1772 H   0  0  0  0  0  0  0  0  0  0  0  0
   14.2925   -1.7241   25.1797 H   0  0  0  0  0  0  0  0  0  0  0  0
   14.5985   -2.3827   23.5367 H   0  0  0  0  0  0  0  0  0  0  0  0
   14.4333   -0.6103   23.7775 H   0  0  0  0  0  0  0  0  0  0  0  0
    6.4286   -1.1686   21.4927 H   0  0  0  0  0  0  0  0  0  0  0  0
    5.2251    1.5090   22.0764 H   0  0  0  0  0  0  0  0  0  0  0  0
    3.6152    1.6678   21.2958 H   0  0  0  0  0  0  0  0  0  0  0  0
    4.2210    0.0487   21.7837 H   0  0  0  0  0  0  0  0  0  0  0  0
    3.7205    2.0924   19.0000 H   0  0  0  0  0  0  0  0  0  0  0  0
    4.8119    1.8559   16.8330 H   0  0  0  0  0  0  0  0  0  0  0  0
    7.7544   -0.5878   18.4370 H   0  0  0  0  0  0  0  0  0  0  0  0
  1  2  2  0
  2  3  1  0
  2 11  1  0
  3  4  1  0
  3 19  1  1
  3 20  1  0
  4  5  1  0
  4  7  1  0
  4 21  1  6
  5  6  1  0
  5 22  1  1
  5 23  1  0
  6  9  1  0
  6 24  1  6
  6 25  1  0
  7  8  1  0
  7 26  1  1
  7 27  1  0
  8  9  1  0
  8 28  1  6
  8 29  1  0
  9 10  1  0
  9 30  1  1
 10 31  1  1
 10 32  1  0
 10 33  1  0
 11 12  1  0
 11 34  1  0
 12 13  2  0
 12 18  1  0
 13 14  1  0
 13 15  1  0
 14 35  1  1
 14 36  1  0
 14 37  1  0
 15 16  2  0
 15 38  1  0
 16 17  1  0
 16 39  1  0
 17 18  2  0
 18 40  1  0
M  CHG  1   4   1
M  END
$$$$
