LIG(A-305)
     RDKit          3D

 30 31  0  0  0  0  0  0  0  0999 V2000
   14.0339   -1.6563   21.4790 Cl  0  0  0  0  0  0  0  0  0  0  0  0
   12.7489   -0.8863   22.3660 C   0  0  0  0  0  0  0  0  0  0  0  0
   13.0578    0.0967   23.2870 C   0  0  0  0  0  0  0  0  0  0  0  0
   12.0248    0.7096   23.9820 C   0  0  0  0  0  0  0  0  0  0  0  0
   10.7068    0.3575   23.7361 C   0  0  0  0  0  0  0  0  0  0  0  0
   11.4479   -1.2665   22.1131 C   0  0  0  0  0  0  0  0  0  0  0  0
   10.4179   -0.6185   22.7861 C   0  0  0  0  0  0  0  0  0  0  0  0
    9.1109   -0.8306   22.3012 N   0  0  0  0  0  0  0  0  0  0  0  0
    8.5748   -0.1017   21.2772 C   0  0  0  0  0  0  0  0  0  0  0  0
    9.1187    0.8943   20.8201 O   0  0  0  0  0  0  0  0  0  0  0  0
    7.3858   -0.5868   20.8142 N   0  0  0  0  0  0  0  0  0  0  0  0
    6.6897    0.0421   19.7592 C   0  0  0  0  0  0  0  0  0  0  0  0
    5.5176    0.7730   20.0293 C   0  0  0  0  0  0  0  0  0  0  0  0
    5.0217    0.9980   21.4353 C   0  0  1  0  0  0  0  0  0  0  0  0
    7.1576   -0.0199   18.4462 C   0  0  0  0  0  0  0  0  0  0  0  0
    6.5405    0.5750   17.4192 N   0  0  0  0  0  0  0  0  0  0  0  0
    5.4135    1.2499   17.6843 C   0  0  0  0  0  0  0  0  0  0  0  0
    4.8745    1.3679   18.9503 C   0  0  0  0  0  0  0  0  0  0  0  0
   14.0844    0.3827   23.4625 H   0  0  0  0  0  0  0  0  0  0  0  0
   12.2493    1.4661   24.7195 H   0  0  0  0  0  0  0  0  0  0  0  0
    9.9069    0.8386   24.2794 H   0  0  0  0  0  0  0  0  0  0  0  0
   11.2327   -2.0531   21.4051 H   0  0  0  0  0  0  0  0  0  0  0  0
    8.5528   -1.5445   22.7244 H   0  0  0  0  0  0  0  0  0  0  0  0
    6.9982   -1.4081   21.2328 H   0  0  0  0  0  0  0  0  0  0  0  0
    5.7861    1.5393   22.0121 H   0  0  0  0  0  0  0  0  0  0  0  0
    4.0957    1.5911   21.4068 H   0  0  0  0  0  0  0  0  0  0  0  0
    4.8210    0.0276   21.9128 H   0  0  0  0  0  0  0  0  0  0  0  0
    8.0626   -0.5755   18.2494 H   0  0  0  0  0  0  0  0  0  0  0  0
    4.8989    1.7274   16.8635 H   0  0  0  0  0  0  0  0  0  0  0  0
    3.9583    1.9195   19.1011 H   0  0  0  0  0  0  0  0  0  0  0  0
  1  2  1  0
  2  3  2  0
  2  6  1  0
  3  4  1  0
  3 19  1  0
  4  5  2  0
  4 20  1  0
  5  7  1  0
  5 21  1  0
  6  7  2  0
  6 22  1  0
  7  8  1  0
  8  9  1  0
  8 23  1  0
  9 10  2  0
  9 11  1  0
 11 12  1  0
 11 24  1  0
 12 13  2  0
 12 15  1  0
 13 14  1  0
 13 18  1  0
 14 25  1  1
 14 26  1  0
 14 27  1  0
 15 16  2  0
 15 28  1  0
 16 17  1  0
 17 18  2  0
 17 29  1  0
 18 30  1  0
M  END
$$$$
