LIG(A-306)
     RDKit          3D

 55 58  0  0  1  0  0  0  0  0999 V2000
   13.9969   -1.5378   21.3410 Cl  0  0  0  0  0  0  0  0  0  0  0  0
   12.8348   -0.7949   22.4059 C   0  0  0  0  0  0  0  0  0  0  0  0
   11.4988   -1.1351   22.2920 C   0  0  0  0  0  0  0  0  0  0  0  0
   13.2636    0.1513   23.3069 C   0  0  0  0  0  0  0  0  0  0  0  0
   12.3355    0.7642   24.1259 C   0  0  0  0  0  0  0  0  0  0  0  0
   10.9786    0.4690   24.0269 C   0  0  0  0  0  0  0  0  0  0  0  0
   10.0185    1.2169   24.9198 C   0  0  1  0  0  0  0  0  0  0  0  0
    8.6335    1.0077   24.4848 N   0  0  0  0  0  0  0  0  0  0  0  0
    7.5474    1.9136   25.2318 S   0  0  2  0  0  0  0  0  0  0  0  0
    7.9244    1.9677   26.5998 O   0  0  0  0  0  0  0  0  0  0  0  0
    6.2544    1.4564   24.8548 O   0  0  0  0  0  0  0  0  0  0  0  0
    7.7982    3.3546   24.5777 N   0  0  0  0  0  0  0  0  0  0  0  0
    7.7381    3.7005   23.1397 C   0  0  1  0  0  0  0  0  0  0  0  0
    6.3711    4.2233   22.7146 C   0  0  1  0  0  0  0  0  0  0  0  0
    6.4089    5.6513   22.3766 C   0  0  0  0  0  0  0  0  0  0  0  0
    6.4077    6.7652   22.1325 N   0  0  0  0  0  0  0  0  0  0  0  0
    8.2570    4.4517   25.4356 C   0  0  1  0  0  0  0  0  0  0  0  0
   10.5507   -0.4901   23.0919 C   0  0  0  0  0  0  0  0  0  0  0  0
    9.0698   -0.8063   22.9459 C   0  0  1  0  0  0  0  0  0  0  0  0
    8.3057   -0.4034   24.2089 C   0  0  1  0  0  0  0  0  0  0  0  0
    8.5047   -0.0465   21.7419 C   0  0  0  0  0  0  0  0  0  0  0  0
    9.0385    0.9736   21.3008 O   0  0  0  0  0  0  0  0  0  0  0  0
    7.3697   -0.5777   21.2139 N   0  0  0  0  0  0  0  0  0  0  0  0
    6.6277   -0.1138   20.0949 C   0  0  0  0  0  0  0  0  0  0  0  0
    5.4616    0.6840   20.3208 C   0  0  0  0  0  0  0  0  0  0  0  0
    4.8925    0.9040   21.6008 C   0  0  0  0  0  0  0  0  0  0  0  0
    3.7984    1.7059   21.7538 C   0  0  0  0  0  0  0  0  0  0  0  0
    3.2223    2.3377   20.6587 C   0  0  0  0  0  0  0  0  0  0  0  0
    3.7184    2.1437   19.4017 C   0  0  0  0  0  0  0  0  0  0  0  0
    4.8385    1.2999   19.1938 C   0  0  0  0  0  0  0  0  0  0  0  0
    5.3805    1.0359   17.9138 C   0  0  0  0  0  0  0  0  0  0  0  0
    6.4366    0.2660   17.6979 N   0  0  0  0  0  0  0  0  0  0  0  0
    7.0307   -0.2819   18.7679 C   0  0  0  0  0  0  0  0  0  0  0  0
   11.1899   -1.8945   21.5890 H   0  0  0  0  0  0  0  0  0  0  0  0
   14.3098    0.4110   23.3731 H   0  0  0  0  0  0  0  0  0  0  0  0
   12.6687    1.4861   24.8568 H   0  0  0  0  0  0  0  0  0  0  0  0
   10.1306    0.8559   25.9528 H   0  0  0  0  0  0  0  0  0  0  0  0
   10.2508    2.2913   24.8797 H   0  0  0  0  0  0  0  0  0  0  0  0
    8.4907    4.4757   22.9329 H   0  0  0  0  0  0  0  0  0  0  0  0
    7.9684    2.7998   22.5516 H   0  0  0  0  0  0  0  0  0  0  0  0
    6.0332    3.6585   21.8332 H   0  0  0  0  0  0  0  0  0  0  0  0
    5.6607    4.0727   23.5409 H   0  0  0  0  0  0  0  0  0  0  0  0
    8.3783    5.3635   24.8324 H   0  0  0  0  0  0  0  0  0  0  0  0
    7.5155    4.6322   26.2278 H   0  0  0  0  0  0  0  0  0  0  0  0
    9.2216    4.1823   25.8907 H   0  0  0  0  0  0  0  0  0  0  0  0
    8.9453   -1.8866   22.7796 H   0  0  0  0  0  0  0  0  0  0  0  0
    8.6158   -1.0347   25.0546 H   0  0  0  0  0  0  0  0  0  0  0  0
    7.2234   -0.5140   24.0462 H   0  0  0  0  0  0  0  0  0  0  0  0
    7.0141   -1.3942   21.6688 H   0  0  0  0  0  0  0  0  0  0  0  0
    5.3309    0.4305   22.4668 H   0  0  0  0  0  0  0  0  0  0  0  0
    3.3759    1.8508   22.7371 H   0  0  0  0  0  0  0  0  0  0  0  0
    2.3732    2.9892   20.8034 H   0  0  0  0  0  0  0  0  0  0  0  0
    3.2544    2.6364   18.5601 H   0  0  0  0  0  0  0  0  0  0  0  0
    4.9030    1.4908   17.0587 H   0  0  0  0  0  0  0  0  0  0  0  0
    7.8938   -0.9059   18.5886 H   0  0  0  0  0  0  0  0  0  0  0  0
  1  2  1  0
  2  3  2  0
  2  4  1  0
  3 18  1  0
  3 34  1  0
  4  5  2  0
  4 35  1  0
  5  6  1  0
  5 36  1  0
  6  7  1  0
  6 18  2  0
  7  8  1  0
  7 37  1  1
  7 38  1  0
  8  9  1  0
  8 20  1  0
  9 10  2  0
  9 11  2  0
  9 12  1  6
 12 13  1  0
 12 17  1  0
 13 14  1  0
 13 39  1  1
 13 40  1  0
 14 15  1  0
 14 41  1  6
 14 42  1  0
 15 16  3  0
 17 43  1  6
 17 44  1  0
 17 45  1  0
 18 19  1  0
 19 20  1  0
 19 21  1  0
 19 46  1  6
 20 47  1  1
 20 48  1  0
 21 22  2  0
 21 23  1  0
 23 24  1  0
 23 49  1  0
 24 25  2  0
 24 33  1  0
 25 26  1  0
 25 30  1  0
 26 27  2  0
 26 50  1  0
 27 28  1  0
 27 51  1  0
 28 29  2  0
 28 52  1  0
 29 30  1  0
 29 53  1  0
 30 31  2  0
 31 32  1  0
 31 54  1  0
 32 33  2  0
 33 55  1  0
M  END
$$$$
