LIG(A-306)
     RDKit          3D

 56 60  0  0  1  0  0  0  0  0999 V2000
   10.6723    3.2287   24.3760 O   0  0  0  0  0  0  0  0  0  0  0  0
   10.3306    2.0776   24.1627 C   0  0  0  0  0  0  0  0  0  0  0  0
    8.9979    1.6743   24.3006 N   0  0  0  0  0  0  0  0  0  0  0  0
    7.7979    2.7847   24.5258 S   0  0  1  0  0  0  0  0  0  0  0  0
    6.5923    2.0504   24.7478 O   0  0  0  0  0  0  0  0  0  0  0  0
    8.2290    3.7167   25.5203 O   0  0  0  0  0  0  0  0  0  0  0  0
    7.6629    3.6491   22.9707 C   0  0  1  0  0  0  0  0  0  0  0  0
    6.8773    4.9705   23.0082 C   0  0  1  0  0  0  0  0  0  0  0  0
    5.9926    5.4008   21.8907 C   0  0  1  0  0  0  0  0  0  0  0  0
    5.4032    4.9823   23.2170 C   0  0  1  0  0  0  0  0  0  0  0  0
    7.6757    6.0246   23.5835 O   0  0  0  0  0  0  0  0  0  0  0  0
    8.5721    6.7616   22.7391 C   0  0  1  0  0  0  0  0  0  0  0  0
   11.2435    1.0719   23.5938 C   0  0  0  0  0  0  0  0  0  0  0  0
   12.6077    1.3607   23.5254 C   0  0  0  0  0  0  0  0  0  0  0  0
   13.4811    0.4937   22.8971 C   0  0  0  0  0  0  0  0  0  0  0  0
   12.9863   -0.6623   22.3353 C   0  0  0  0  0  0  0  0  0  0  0  0
   14.0853   -1.7539   21.5360 Cl  0  0  0  0  0  0  0  0  0  0  0  0
   11.6391   -0.9726   22.3756 C   0  0  0  0  0  0  0  0  0  0  0  0
   10.7465   -0.0993   23.0015 C   0  0  0  0  0  0  0  0  0  0  0  0
    9.2569   -0.3877   22.9817 C   0  0  1  0  0  0  0  0  0  0  0  0
    8.5777    0.2558   24.1921 C   0  0  2  0  0  0  0  0  0  0  0  0
    8.6566    0.2142   21.7077 C   0  0  0  0  0  0  0  0  0  0  0  0
    9.0809    1.2577   21.2161 O   0  0  0  0  0  0  0  0  0  0  0  0
    7.5864   -0.4491   21.2099 N   0  0  0  0  0  0  0  0  0  0  0  0
    6.7870   -0.0591   20.1137 C   0  0  0  0  0  0  0  0  0  0  0  0
    5.6709    0.7997   20.3627 C   0  0  0  0  0  0  0  0  0  0  0  0
    5.1544    1.0675   21.6571 C   0  0  0  0  0  0  0  0  0  0  0  0
    4.0886    1.9063   21.8273 C   0  0  0  0  0  0  0  0  0  0  0  0
    3.4931    2.5289   20.7357 C   0  0  0  0  0  0  0  0  0  0  0  0
    3.9557    2.3054   19.4712 C   0  0  0  0  0  0  0  0  0  0  0  0
    5.0444    1.4264   19.2457 C   0  0  0  0  0  0  0  0  0  0  0  0
    5.5411    1.1210   17.9554 C   0  0  0  0  0  0  0  0  0  0  0  0
    6.5472    0.2879   17.7224 N   0  0  0  0  0  0  0  0  0  0  0  0
    7.1410   -0.2798   18.7830 C   0  0  0  0  0  0  0  0  0  0  0  0
    8.6809    3.8710   22.6179 H   0  0  0  0  0  0  0  0  0  0  0  0
    7.1643    2.9797   22.2541 H   0  0  0  0  0  0  0  0  0  0  0  0
    5.9657    6.4569   21.5841 H   0  0  0  0  0  0  0  0  0  0  0  0
    5.8702    4.7589   21.0058 H   0  0  0  0  0  0  0  0  0  0  0  0
    4.8506    4.0348   23.3003 H   0  0  0  0  0  0  0  0  0  0  0  0
    4.9460    5.7328   23.8785 H   0  0  0  0  0  0  0  0  0  0  0  0
    9.0980    7.5211   23.3362 H   0  0  0  0  0  0  0  0  0  0  0  0
    9.3055    6.0731   22.2937 H   0  0  0  0  0  0  0  0  0  0  0  0
    8.0001    7.2553   21.9398 H   0  0  0  0  0  0  0  0  0  0  0  0
   12.9842    2.2711   23.9679 H   0  0  0  0  0  0  0  0  0  0  0  0
   14.5361    0.7192   22.8474 H   0  0  0  0  0  0  0  0  0  0  0  0
   11.2790   -1.8858   21.9254 H   0  0  0  0  0  0  0  0  0  0  0  0
    9.0859   -1.4743   22.9945 H   0  0  0  0  0  0  0  0  0  0  0  0
    7.4858    0.2055   24.0693 H   0  0  0  0  0  0  0  0  0  0  0  0
    8.8692   -0.2835   25.1054 H   0  0  0  0  0  0  0  0  0  0  0  0
    7.3365   -1.3034   21.6657 H   0  0  0  0  0  0  0  0  0  0  0  0
    5.6096    0.6025   22.5191 H   0  0  0  0  0  0  0  0  0  0  0  0
    3.7048    2.0874   22.8204 H   0  0  0  0  0  0  0  0  0  0  0  0
    2.6572    3.1951   20.8899 H   0  0  0  0  0  0  0  0  0  0  0  0
    3.4877    2.8030   18.6347 H   0  0  0  0  0  0  0  0  0  0  0  0
    5.0713    1.5963   17.1070 H   0  0  0  0  0  0  0  0  0  0  0  0
    7.9568   -0.9611   18.5913 H   0  0  0  0  0  0  0  0  0  0  0  0
  1  2  2  0
  2  3  1  0
  2 13  1  0
  4  3  1  6
  3 21  1  0
  4  5  2  0
  4  6  2  0
  4  7  1  0
  7  8  1  0
  7 35  1  6
  7 36  1  0
  8  9  1  0
  8 10  1  0
  8 11  1  1
  9 10  1  0
  9 37  1  6
  9 38  1  0
 10 39  1  6
 10 40  1  0
 11 12  1  0
 12 41  1  1
 12 42  1  0
 12 43  1  0
 13 14  2  0
 13 19  1  0
 14 15  1  0
 14 44  1  0
 15 16  2  0
 15 45  1  0
 16 17  1  0
 16 18  1  0
 18 19  2  0
 18 46  1  0
 19 20  1  0
 20 21  1  0
 20 22  1  0
 20 47  1  6
 21 48  1  6
 21 49  1  0
 22 23  2  0
 22 24  1  0
 24 25  1  0
 24 50  1  0
 25 26  2  0
 25 34  1  0
 26 27  1  0
 26 31  1  0
 27 28  2  0
 27 51  1  0
 28 29  1  0
 28 52  1  0
 29 30  2  0
 29 53  1  0
 30 31  1  0
 30 54  1  0
 31 32  2  0
 32 33  1  0
 32 55  1  0
 33 34  2  0
 34 56  1  0
M  END
$$$$
