LIG(A-305)
     RDKit          3D

 36 36  0  0  1  0  0  0  0  0999 V2000
    9.7088    0.9777   21.0771 O   0  0  0  0  0  0  0  0  0  0  0  0
    9.1898   -0.0173   21.5651 C   0  0  0  0  0  0  0  0  0  0  0  0
    9.7448   -0.6704   22.8081 C   0  0  1  0  0  0  0  0  0  0  0  0
   10.9277   -1.6024   22.5230 C   0  0  2  0  0  0  0  0  0  0  0  0
   11.0368   -2.6515   23.6270 C   0  0  1  0  0  0  0  0  0  0  0  0
   12.2468   -0.7945   22.3180 C   0  0  2  0  0  0  0  0  0  0  0  0
   13.4327   -1.6585   21.9169 C   0  0  1  0  0  0  0  0  0  0  0  0
   12.5999    0.0615   23.5230 C   0  0  1  0  0  0  0  0  0  0  0  0
    8.0697   -0.5873   21.0832 N   0  0  0  0  0  0  0  0  0  0  0  0
    7.2367   -0.0402   20.0752 C   0  0  0  0  0  0  0  0  0  0  0  0
    6.0157    0.5808   20.4303 C   0  0  0  0  0  0  0  0  0  0  0  0
    5.6198    0.8058   21.8673 C   0  0  1  0  0  0  0  0  0  0  0  0
    5.2077    1.0409   19.3963 C   0  0  0  0  0  0  0  0  0  0  0  0
    5.6356    0.9159   18.0893 C   0  0  0  0  0  0  0  0  0  0  0  0
    6.7996    0.3558   17.7392 N   0  0  0  0  0  0  0  0  0  0  0  0
    7.5756   -0.1162   18.7222 C   0  0  0  0  0  0  0  0  0  0  0  0
   10.0795    0.1184   23.4979 H   0  0  0  0  0  0  0  0  0  0  0  0
    8.9440   -1.2568   23.2824 H   0  0  0  0  0  0  0  0  0  0  0  0
   10.7170   -2.1294   21.5807 H   0  0  0  0  0  0  0  0  0  0  0  0
   11.8868   -3.3176   23.4179 H   0  0  0  0  0  0  0  0  0  0  0  0
   11.1925   -2.1510   24.5941 H   0  0  0  0  0  0  0  0  0  0  0  0
   10.1092   -3.2416   23.6647 H   0  0  0  0  0  0  0  0  0  0  0  0
   12.0600   -0.1043   21.4820 H   0  0  0  0  0  0  0  0  0  0  0  0
   14.3228   -1.0246   21.7906 H   0  0  0  0  0  0  0  0  0  0  0  0
   13.6233   -2.4060   22.7010 H   0  0  0  0  0  0  0  0  0  0  0  0
   13.2096   -2.1701   20.9690 H   0  0  0  0  0  0  0  0  0  0  0  0
   13.5343    0.6069   23.3247 H   0  0  0  0  0  0  0  0  0  0  0  0
   11.7890    0.7802   23.7123 H   0  0  0  0  0  0  0  0  0  0  0  0
   12.7317   -0.5832   24.4044 H   0  0  0  0  0  0  0  0  0  0  0  0
    7.8029   -1.4707   21.4684 H   0  0  0  0  0  0  0  0  0  0  0  0
    6.3698    1.4425   22.3594 H   0  0  0  0  0  0  0  0  0  0  0  0
    4.6381    1.3006   21.9039 H   0  0  0  0  0  0  0  0  0  0  0  0
    5.5624   -0.1618   22.3874 H   0  0  0  0  0  0  0  0  0  0  0  0
    4.2514    1.4931   19.6141 H   0  0  0  0  0  0  0  0  0  0  0  0
    4.9947    1.2913   17.3052 H   0  0  0  0  0  0  0  0  0  0  0  0
    8.5135   -0.5804   18.4551 H   0  0  0  0  0  0  0  0  0  0  0  0
  1  2  2  0
  2  3  1  0
  2  9  1  0
  3  4  1  0
  3 17  1  1
  3 18  1  0
  4  5  1  0
  4  6  1  0
  4 19  1  6
  5 20  1  6
  5 21  1  0
  5 22  1  0
  6  7  1  0
  6  8  1  0
  6 23  1  6
  7 24  1  6
  7 25  1  0
  7 26  1  0
  8 27  1  6
  8 28  1  0
  8 29  1  0
  9 10  1  0
  9 30  1  0
 10 11  2  0
 10 16  1  0
 11 12  1  0
 11 13  1  0
 12 31  1  1
 12 32  1  0
 12 33  1  0
 13 14  2  0
 13 34  1  0
 14 15  1  0
 14 35  1  0
 15 16  2  0
 16 36  1  0
M  END
$$$$
