LIG(A-306)
     RDKit          3D

 41 44  0  0  1  0  0  0  0  0999 V2000
    9.0301    0.7797   20.9710 O   0  0  0  0  0  0  0  0  0  0  0  0
    8.4665   -0.2691   21.2951 C   0  0  0  0  0  0  0  0  0  0  0  0
    9.0807   -1.2474   22.3600 C   0  0  2  0  0  0  0  0  0  0  0  0
    8.2063   -1.1977   23.5446 N   0  0  1  0  0  0  0  0  0  0  0  0
    8.1419    0.1590   24.1099 C   0  0  1  0  0  0  0  0  0  0  0  0
    9.4799    0.5511   24.6993 C   0  0  1  0  0  0  0  0  0  0  0  0
   10.4604   -0.7631   22.7559 C   0  0  0  0  0  0  0  0  0  0  0  0
   10.6341    0.1375   23.8146 C   0  0  0  0  0  0  0  0  0  0  0  0
   11.9230    0.5741   24.1217 C   0  0  0  0  0  0  0  0  0  0  0  0
   13.0202    0.1063   23.4232 C   0  0  0  0  0  0  0  0  0  0  0  0
   11.5687   -1.2449   22.0635 C   0  0  0  0  0  0  0  0  0  0  0  0
   12.8276   -0.8042   22.4097 C   0  0  0  0  0  0  0  0  0  0  0  0
   14.2003   -1.4261   21.5420 Cl  0  0  0  0  0  0  0  0  0  0  0  0
    7.2756   -0.6714   20.7968 N   0  0  0  0  0  0  0  0  0  0  0  0
    6.4843   -0.0321   19.8244 C   0  0  0  0  0  0  0  0  0  0  0  0
    5.4042    0.7974   20.2541 C   0  0  0  0  0  0  0  0  0  0  0  0
    5.0285    0.9622   21.6162 C   0  0  0  0  0  0  0  0  0  0  0  0
    3.9885    1.7795   21.9640 C   0  0  0  0  0  0  0  0  0  0  0  0
    3.2760    2.4710   20.9934 C   0  0  0  0  0  0  0  0  0  0  0  0
    3.5996    2.3493   19.6721 C   0  0  0  0  0  0  0  0  0  0  0  0
    4.6667    1.5058   19.2685 C   0  0  0  0  0  0  0  0  0  0  0  0
    5.0444    1.3271   17.9144 C   0  0  0  0  0  0  0  0  0  0  0  0
    6.0394    0.5474   17.5125 N   0  0  0  0  0  0  0  0  0  0  0  0
    6.7297   -0.1073   18.4528 C   0  0  0  0  0  0  0  0  0  0  0  0
    9.1320   -2.2651   21.9458 H   0  0  0  0  0  0  0  0  0  0  0  0
    7.2852   -1.4840   23.2809 H   0  0  0  0  0  0  0  0  0  0  0  0
    8.5637   -1.8225   24.2389 H   0  0  0  0  0  0  0  0  0  0  0  0
    7.8741    0.8702   23.3147 H   0  0  0  0  0  0  0  0  0  0  0  0
    7.3765    0.1863   24.8994 H   0  0  0  0  0  0  0  0  0  0  0  0
    9.5047    1.6433   24.8273 H   0  0  0  0  0  0  0  0  0  0  0  0
    9.5920    0.0645   25.6794 H   0  0  0  0  0  0  0  0  0  0  0  0
   12.0658    1.2893   24.9182 H   0  0  0  0  0  0  0  0  0  0  0  0
   14.0139    0.4503   23.6693 H   0  0  0  0  0  0  0  0  0  0  0  0
   11.4425   -1.9579   21.2622 H   0  0  0  0  0  0  0  0  0  0  0  0
    6.9129   -1.5279   21.1641 H   0  0  0  0  0  0  0  0  0  0  0  0
    5.5720    0.4348   22.3863 H   0  0  0  0  0  0  0  0  0  0  0  0
    3.7186    1.8881   23.0041 H   0  0  0  0  0  0  0  0  0  0  0  0
    2.4575    3.1118   21.2863 H   0  0  0  0  0  0  0  0  0  0  0  0
    3.0396    2.8986   18.9297 H   0  0  0  0  0  0  0  0  0  0  0  0
    4.4854    1.8607   17.1600 H   0  0  0  0  0  0  0  0  0  0  0  0
    7.5392   -0.7428   18.1253 H   0  0  0  0  0  0  0  0  0  0  0  0
  1  2  2  0
  2  3  1  0
  2 14  1  0
  3  4  1  0
  3  7  1  0
  3 25  1  6
  4  5  1  0
  4 26  1  6
  4 27  1  0
  5  6  1  0
  5 28  1  6
  5 29  1  0
  6  8  1  0
  6 30  1  1
  6 31  1  0
  7  8  2  0
  7 11  1  0
  8  9  1  0
  9 10  2  0
  9 32  1  0
 10 12  1  0
 10 33  1  0
 11 12  2  0
 11 34  1  0
 12 13  1  0
 14 15  1  0
 14 35  1  0
 15 16  2  0
 15 24  1  0
 16 17  1  0
 16 21  1  0
 17 18  2  0
 17 36  1  0
 18 19  1  0
 18 37  1  0
 19 20  2  0
 19 38  1  0
 20 21  1  0
 20 39  1  0
 21 22  2  0
 22 23  1  0
 22 40  1  0
 23 24  2  0
 24 41  1  0
M  CHG  1   4   1
M  END
$$$$
