LIG(A-307)
     RDKit          3D

 57 60  0  0  0  0  0  0  0  0999 V2000
   13.6342    7.9684   23.3290 O   0  0  0  0  0  0  0  0  0  0  0  0
   12.7546    7.4511   24.3292 S   0  0  2  0  0  0  0  0  0  0  0  0
   11.4214    7.9588   24.4035 O   0  0  0  0  0  0  0  0  0  0  0  0
   13.5099    7.6392   25.9290 C   0  0  1  0  0  0  0  0  0  0  0  0
   12.5559    8.2249   26.9432 C   0  0  1  0  0  0  0  0  0  0  0  0
   12.6409    5.8381   24.0841 N   0  0  0  0  0  0  0  0  0  0  0  0
   13.7150    5.0975   23.3958 C   0  0  1  0  0  0  0  0  0  0  0  0
   13.1101    3.8643   22.7118 C   0  0  1  0  0  0  0  0  0  0  0  0
   12.3706    3.0351   23.6750 N   0  0  0  0  0  0  0  0  0  0  0  0
   11.3395    3.7898   24.4032 C   0  0  1  0  0  0  0  0  0  0  0  0
   11.9414    5.0149   25.0912 C   0  0  2  0  0  0  0  0  0  0  0  0
   12.1299    1.6760   23.3359 C   0  0  0  0  0  0  0  0  0  0  0  0
   13.1880    0.8433   22.9496 C   0  0  0  0  0  0  0  0  0  0  0  0
   12.9122   -0.4377   22.5126 C   0  0  0  0  0  0  0  0  0  0  0  0
   14.1913   -1.3793   21.7973 Cl  0  0  0  0  0  0  0  0  0  0  0  0
   11.6304   -0.9400   22.4929 C   0  0  0  0  0  0  0  0  0  0  0  0
   10.5712   -0.1303   22.8752 C   0  0  0  0  0  0  0  0  0  0  0  0
   10.8240    1.1667   23.3152 C   0  0  0  0  0  0  0  0  0  0  0  0
    9.1493   -0.6097   22.6855 C   0  0  1  0  0  0  0  0  0  0  0  0
    8.5089    0.0712   21.4916 C   0  0  0  0  0  0  0  0  0  0  0  0
    8.9695    1.1084   21.0186 O   0  0  0  0  0  0  0  0  0  0  0  0
    7.4019   -0.5361   21.0099 N   0  0  0  0  0  0  0  0  0  0  0  0
    6.5986   -0.1012   19.9371 C   0  0  0  0  0  0  0  0  0  0  0  0
    5.4794    0.7415   20.2184 C   0  0  0  0  0  0  0  0  0  0  0  0
    4.9926    0.9993   21.5255 C   0  0  0  0  0  0  0  0  0  0  0  0
    3.9305    1.8310   21.7298 C   0  0  0  0  0  0  0  0  0  0  0  0
    3.2971    2.4439   20.6590 C   0  0  0  0  0  0  0  0  0  0  0  0
    3.7278    2.2271   19.3829 C   0  0  0  0  0  0  0  0  0  0  0  0
    4.8270    1.3714   19.1266 C   0  0  0  0  0  0  0  0  0  0  0  0
    5.3218    1.1156   17.8274 C   0  0  0  0  0  0  0  0  0  0  0  0
    6.3429    0.3149   17.5621 N   0  0  0  0  0  0  0  0  0  0  0  0
    6.9463   -0.2780   18.5990 C   0  0  0  0  0  0  0  0  0  0  0  0
   13.8413    6.6519   26.2829 H   0  0  0  0  0  0  0  0  0  0  0  0
   14.3798    8.3058   25.8342 H   0  0  0  0  0  0  0  0  0  0  0  0
   13.0655    8.3222   27.9132 H   0  0  0  0  0  0  0  0  0  0  0  0
   12.2228    9.2166   26.6032 H   0  0  0  0  0  0  0  0  0  0  0  0
   11.6843    7.5627   27.0518 H   0  0  0  0  0  0  0  0  0  0  0  0
   14.1846    5.7450   22.6408 H   0  0  0  0  0  0  0  0  0  0  0  0
   14.4717    4.7794   24.1280 H   0  0  0  0  0  0  0  0  0  0  0  0
   12.4226    4.1941   21.9191 H   0  0  0  0  0  0  0  0  0  0  0  0
   13.9198    3.2655   22.2692 H   0  0  0  0  0  0  0  0  0  0  0  0
   10.5663    4.1192   23.6936 H   0  0  0  0  0  0  0  0  0  0  0  0
   10.8855    3.1371   25.1634 H   0  0  0  0  0  0  0  0  0  0  0  0
   11.1400    5.6061   25.5583 H   0  0  0  0  0  0  0  0  0  0  0  0
   12.6553    4.6908   25.8627 H   0  0  0  0  0  0  0  0  0  0  0  0
   14.2070    1.1986   22.9929 H   0  0  0  0  0  0  0  0  0  0  0  0
   11.4508   -1.9585   22.1815 H   0  0  0  0  0  0  0  0  0  0  0  0
   10.0039    1.7876   23.6444 H   0  0  0  0  0  0  0  0  0  0  0  0
    9.1539   -1.6974   22.5213 H   0  0  0  0  0  0  0  0  0  0  0  0
    8.5665   -0.3777   23.5890 H   0  0  0  0  0  0  0  0  0  0  0  0
    7.1236   -1.3833   21.4624 H   0  0  0  0  0  0  0  0  0  0  0  0
    5.4704    0.5297   22.3727 H   0  0  0  0  0  0  0  0  0  0  0  0
    3.5796    2.0137   22.7348 H   0  0  0  0  0  0  0  0  0  0  0  0
    2.4562    3.0979   20.8368 H   0  0  0  0  0  0  0  0  0  0  0  0
    3.2255    2.7130   18.5595 H   0  0  0  0  0  0  0  0  0  0  0  0
    4.8352    1.6051   16.9967 H   0  0  0  0  0  0  0  0  0  0  0  0
    7.7669   -0.9458   18.3819 H   0  0  0  0  0  0  0  0  0  0  0  0
  1  2  2  0
  2  3  2  0
  2  4  1  0
  2  6  1  6
  4  5  1  0
  4 33  1  1
  4 34  1  0
  5 35  1  1
  5 36  1  0
  5 37  1  0
  6  7  1  0
  6 11  1  0
  7  8  1  0
  7 38  1  6
  7 39  1  0
  8  9  1  0
  8 40  1  6
  8 41  1  0
  9 10  1  0
  9 12  1  0
 10 11  1  0
 10 42  1  6
 10 43  1  0
 11 44  1  1
 11 45  1  0
 12 13  2  0
 12 18  1  0
 13 14  1  0
 13 46  1  0
 14 15  1  0
 14 16  2  0
 16 17  1  0
 16 47  1  0
 17 18  2  0
 17 19  1  0
 18 48  1  0
 19 20  1  0
 19 49  1  6
 19 50  1  0
 20 21  2  0
 20 22  1  0
 22 23  1  0
 22 51  1  0
 23 24  2  0
 23 32  1  0
 24 25  1  0
 24 29  1  0
 25 26  2  0
 25 52  1  0
 26 27  1  0
 26 53  1  0
 27 28  2  0
 27 54  1  0
 28 29  1  0
 28 55  1  0
 29 30  2  0
 30 31  1  0
 30 56  1  0
 31 32  2  0
 32 57  1  0
M  END
$$$$
