LIG(A-306)
     RDKit          3D

 45 47  0  0  1  0  0  0  0  0999 V2000
    2.8558    0.6844   23.9995 O   0  0  0  0  0  0  0  0  0  0  0  0
    2.8276    2.1054   24.1387 S   0  0  2  0  0  0  0  0  0  0  0  0
    3.0976    2.6783   25.4197 O   0  0  0  0  0  0  0  0  0  0  0  0
    1.2704    2.6932   23.5889 C   0  0  1  0  0  0  0  0  0  0  0  0
    3.9614    2.7027   23.1147 N   0  0  0  0  0  0  0  0  0  0  0  0
    4.5062    4.0388   23.3958 C   0  0  1  0  0  0  0  0  0  0  0  0
    4.1624    2.0960   21.8146 C   0  0  0  0  0  0  0  0  0  0  0  0
    5.1925    1.1762   21.6334 C   0  0  0  0  0  0  0  0  0  0  0  0
    5.5975    0.7794   20.3343 C   0  0  0  0  0  0  0  0  0  0  0  0
    4.9073    1.3234   19.2144 C   0  0  0  0  0  0  0  0  0  0  0  0
    3.8322    2.2172   19.4376 C   0  0  0  0  0  0  0  0  0  0  0  0
    3.4712    2.5800   20.7007 C   0  0  0  0  0  0  0  0  0  0  0  0
    6.7006   -0.0914   20.0781 C   0  0  0  0  0  0  0  0  0  0  0  0
    7.0276   -0.3531   18.7480 C   0  0  0  0  0  0  0  0  0  0  0  0
    6.3884    0.1579   17.6871 N   0  0  0  0  0  0  0  0  0  0  0  0
    5.3623    0.9657   17.9203 C   0  0  0  0  0  0  0  0  0  0  0  0
    7.4438   -0.5704   21.1729 N   0  0  0  0  0  0  0  0  0  0  0  0
    8.5448   -0.0232   21.7329 C   0  0  0  0  0  0  0  0  0  0  0  0
    9.0225    1.0579   21.3840 O   0  0  0  0  0  0  0  0  0  0  0  0
    9.1640   -0.8603   22.8338 C   0  0  1  0  0  0  0  0  0  0  0  0
   10.6250   -0.5460   23.0617 C   0  0  0  0  0  0  0  0  0  0  0  0
   11.6010   -1.1558   22.2805 C   0  0  0  0  0  0  0  0  0  0  0  0
   12.9190   -0.7585   22.4025 C   0  0  0  0  0  0  0  0  0  0  0  0
   14.1200   -1.5072   21.3893 Cl  0  0  0  0  0  0  0  0  0  0  0  0
   13.3049    0.2194   23.2956 C   0  0  0  0  0  0  0  0  0  0  0  0
   12.3408    0.7941   24.1057 C   0  0  0  0  0  0  0  0  0  0  0  0
   11.0119    0.4149   23.9888 C   0  0  0  0  0  0  0  0  0  0  0  0
    1.2344    3.7879   23.6905 H   0  0  0  0  0  0  0  0  0  0  0  0
    1.1266    2.4181   22.5336 H   0  0  0  0  0  0  0  0  0  0  0  0
    0.4728    2.2422   24.1974 H   0  0  0  0  0  0  0  0  0  0  0  0
    5.2498    4.3010   22.6288 H   0  0  0  0  0  0  0  0  0  0  0  0
    3.6908    4.7772   23.3834 H   0  0  0  0  0  0  0  0  0  0  0  0
    4.9854    4.0384   24.3858 H   0  0  0  0  0  0  0  0  0  0  0  0
    5.6905    0.7588   22.4961 H   0  0  0  0  0  0  0  0  0  0  0  0
    3.2897    2.6176   18.5939 H   0  0  0  0  0  0  0  0  0  0  0  0
    2.6379    3.2521   20.8430 H   0  0  0  0  0  0  0  0  0  0  0  0
    7.8580   -1.0173   18.5589 H   0  0  0  0  0  0  0  0  0  0  0  0
    4.8398    1.3773   17.0694 H   0  0  0  0  0  0  0  0  0  0  0  0
    7.1169   -1.4198   21.5872 H   0  0  0  0  0  0  0  0  0  0  0  0
    8.6149   -0.6726   23.7682 H   0  0  0  0  0  0  0  0  0  0  0  0
    9.0719   -1.9219   22.5612 H   0  0  0  0  0  0  0  0  0  0  0  0
   11.3306   -1.9347   21.5830 H   0  0  0  0  0  0  0  0  0  0  0  0
   14.3371    0.5300   23.3612 H   0  0  0  0  0  0  0  0  0  0  0  0
   12.6247    1.5412   24.8321 H   0  0  0  0  0  0  0  0  0  0  0  0
   10.2687    0.8716   24.6256 H   0  0  0  0  0  0  0  0  0  0  0  0
  1  2  2  0
  2  3  2  0
  2  4  1  0
  2  5  1  6
  4 28  1  6
  4 29  1  0
  4 30  1  0
  5  6  1  0
  5  7  1  0
  6 31  1  6
  6 32  1  0
  6 33  1  0
  7  8  2  0
  7 12  1  0
  8  9  1  0
  8 34  1  0
  9 10  2  0
  9 13  1  0
 10 11  1  0
 10 16  1  0
 11 12  2  0
 11 35  1  0
 12 36  1  0
 13 14  2  0
 13 17  1  0
 14 15  1  0
 14 37  1  0
 15 16  2  0
 16 38  1  0
 17 18  1  0
 17 39  1  0
 18 19  2  0
 18 20  1  0
 20 21  1  0
 20 40  1  1
 20 41  1  0
 21 22  2  0
 21 27  1  0
 22 23  1  0
 22 42  1  0
 23 24  1  0
 23 25  2  0
 25 26  1  0
 25 43  1  0
 26 27  2  0
 26 44  1  0
 27 45  1  0
M  END
$$$$
