LIG(A-305)
     RDKit          3D

 21 21  0  0  0  0  0  0  0  0999 V2000
   10.1791   -0.7286   22.5701 C   0  0  1  0  0  0  0  0  0  0  0  0
    9.2831   -0.1026   21.5032 C   0  0  0  0  0  0  0  0  0  0  0  0
    7.1800   -0.1526   20.1083 C   0  0  0  0  0  0  0  0  0  0  0  0
    7.5519   -0.2147   18.7713 C   0  0  0  0  0  0  0  0  0  0  0  0
    5.6699    0.9133   18.1144 C   0  0  0  0  0  0  0  0  0  0  0  0
    5.2179    1.0313   19.4224 C   0  0  0  0  0  0  0  0  0  0  0  0
    5.9880    0.4824   20.4474 C   0  0  0  0  0  0  0  0  0  0  0  0
    5.5481    0.5834   21.9054 C   0  0  1  0  0  0  0  0  0  0  0  0
    8.0341   -0.7426   21.1273 N   0  0  0  0  0  0  0  0  0  0  0  0
    6.7988    0.3083   17.8223 N   0  0  0  0  0  0  0  0  0  0  0  0
    9.6100    0.9114   20.9911 O   0  0  0  0  0  0  0  0  0  0  0  0
   11.0676   -0.0975   22.7199 H   0  0  0  0  0  0  0  0  0  0  0  0
    9.6226   -0.8083   23.5156 H   0  0  0  0  0  0  0  0  0  0  0  0
   10.4925   -1.7312   22.2435 H   0  0  0  0  0  0  0  0  0  0  0  0
    8.4777   -0.7016   18.5026 H   0  0  0  0  0  0  0  0  0  0  0  0
    5.0762    1.3308   17.3146 H   0  0  0  0  0  0  0  0  0  0  0  0
    4.2895    1.5377   19.6412 H   0  0  0  0  0  0  0  0  0  0  0  0
    6.3074    1.1334   22.4808 H   0  0  0  0  0  0  0  0  0  0  0  0
    4.5877    1.1166   21.9624 H   0  0  0  0  0  0  0  0  0  0  0  0
    5.4318   -0.4271   22.3240 H   0  0  0  0  0  0  0  0  0  0  0  0
    7.7595   -1.5950   21.5723 H   0  0  0  0  0  0  0  0  0  0  0  0
  1  2  1  0
  1 12  1  1
  1 13  1  0
  1 14  1  0
  2  9  1  0
  2 11  2  0
  3  4  2  0
  3  7  1  0
  3  9  1  0
  4 10  1  0
  4 15  1  0
  5  6  1  0
  5 10  2  0
  5 16  1  0
  6  7  2  0
  6 17  1  0
  7  8  1  0
  8 18  1  1
  8 19  1  0
  8 20  1  0
  9 21  1  0
M  END
$$$$
