LIG(A-306)
     RDKit          3D

 53 57  0  0  1  0  0  0  0  0999 V2000
   10.9298    3.0276   24.5973 O   0  0  0  0  0  0  0  0  0  0  0  0
   10.5437    1.9222   24.2637 C   0  0  0  0  0  0  0  0  0  0  0  0
    9.2627    1.5142   24.4744 N   0  0  0  0  0  0  0  0  0  0  0  0
    8.3796    2.2997   25.3191 C   0  0  1  0  0  0  0  0  0  0  0  0
    7.6476    3.4471   24.6376 C   0  0  0  0  0  0  0  0  0  0  0  0
    6.8002    4.0915   25.2561 O   0  0  0  0  0  0  0  0  0  0  0  0
    7.9354    3.6980   23.3660 N   0  0  0  0  0  0  0  0  0  0  0  0
    7.1698    4.6411   22.5688 C   0  0  1  0  0  0  0  0  0  0  0  0
   11.4329    0.9735   23.5693 C   0  0  0  0  0  0  0  0  0  0  0  0
   12.8002    1.2420   23.5268 C   0  0  0  0  0  0  0  0  0  0  0  0
   13.6586    0.3892   22.8611 C   0  0  0  0  0  0  0  0  0  0  0  0
   13.1502   -0.7452   22.2623 C   0  0  0  0  0  0  0  0  0  0  0  0
   14.2275   -1.8006   21.3976 Cl  0  0  0  0  0  0  0  0  0  0  0  0
   11.8025   -1.0550   22.3052 C   0  0  0  0  0  0  0  0  0  0  0  0
   10.9272   -0.1758   22.9400 C   0  0  0  0  0  0  0  0  0  0  0  0
    9.4137   -0.3667   22.8558 C   0  0  1  0  0  0  0  0  0  0  0  0
    8.8300    0.1427   24.1999 C   0  0  2  0  0  0  0  0  0  0  0  0
    8.8105    0.4644   21.7231 C   0  0  0  0  0  0  0  0  0  0  0  0
    9.1881    1.5640   21.3595 O   0  0  0  0  0  0  0  0  0  0  0  0
    7.7679   -0.2330   21.1944 N   0  0  0  0  0  0  0  0  0  0  0  0
    7.5940   -1.5547   21.8238 C   0  0  1  0  0  0  0  0  0  0  0  0
    8.9419   -1.8003   22.5010 C   0  0  1  0  0  0  0  0  0  0  0  0
    6.9196    0.2332   20.1397 C   0  0  0  0  0  0  0  0  0  0  0  0
    5.7877    1.0461   20.4414 C   0  0  0  0  0  0  0  0  0  0  0  0
    5.3777    1.3829   21.7593 C   0  0  0  0  0  0  0  0  0  0  0  0
    4.2889    2.1805   21.9738 C   0  0  0  0  0  0  0  0  0  0  0  0
    3.5583    2.6856   20.9037 C   0  0  0  0  0  0  0  0  0  0  0  0
    3.9125    2.3909   19.6190 C   0  0  0  0  0  0  0  0  0  0  0  0
    5.0269    1.5574   19.3498 C   0  0  0  0  0  0  0  0  0  0  0  0
    5.4384    1.2078   18.0354 C   0  0  0  0  0  0  0  0  0  0  0  0
    6.4921    0.4479   17.7593 N   0  0  0  0  0  0  0  0  0  0  0  0
    7.2015   -0.0189   18.7981 C   0  0  0  0  0  0  0  0  0  0  0  0
    7.6230    1.6202   25.7384 H   0  0  0  0  0  0  0  0  0  0  0  0
    8.9838    2.7237   26.1347 H   0  0  0  0  0  0  0  0  0  0  0  0
    8.7057    3.2214   22.9424 H   0  0  0  0  0  0  0  0  0  0  0  0
    7.5872    4.6862   21.5521 H   0  0  0  0  0  0  0  0  0  0  0  0
    6.1209    4.3133   22.5201 H   0  0  0  0  0  0  0  0  0  0  0  0
    7.2213    5.6381   23.0307 H   0  0  0  0  0  0  0  0  0  0  0  0
   13.1902    2.1217   24.0171 H   0  0  0  0  0  0  0  0  0  0  0  0
   14.7151    0.6076   22.8098 H   0  0  0  0  0  0  0  0  0  0  0  0
   11.4343   -1.9644   21.8537 H   0  0  0  0  0  0  0  0  0  0  0  0
    7.7316    0.1157   24.1482 H   0  0  0  0  0  0  0  0  0  0  0  0
    9.1750   -0.5127   25.0132 H   0  0  0  0  0  0  0  0  0  0  0  0
    6.7793   -1.5354   22.5626 H   0  0  0  0  0  0  0  0  0  0  0  0
    7.3859   -2.3267   21.0684 H   0  0  0  0  0  0  0  0  0  0  0  0
    9.6470   -2.2909   21.8140 H   0  0  0  0  0  0  0  0  0  0  0  0
    8.8246   -2.4143   23.4062 H   0  0  0  0  0  0  0  0  0  0  0  0
    5.9342    1.0032   22.6034 H   0  0  0  0  0  0  0  0  0  0  0  0
    3.9930    2.4210   22.9843 H   0  0  0  0  0  0  0  0  0  0  0  0
    2.7024    3.3171   21.0910 H   0  0  0  0  0  0  0  0  0  0  0  0
    3.3380    2.7967   18.7996 H   0  0  0  0  0  0  0  0  0  0  0  0
    4.8565    1.5844   17.2071 H   0  0  0  0  0  0  0  0  0  0  0  0
    8.0580   -0.6387   18.5775 H   0  0  0  0  0  0  0  0  0  0  0  0
  1  2  2  0
  2  3  1  0
  2  9  1  0
  3  4  1  0
  3 17  1  0
  4  5  1  0
  4 33  1  1
  4 34  1  0
  5  6  2  0
  5  7  1  0
  7  8  1  0
  7 35  1  0
  8 36  1  6
  8 37  1  0
  8 38  1  0
  9 10  2  0
  9 15  1  0
 10 11  1  0
 10 39  1  0
 11 12  2  0
 11 40  1  0
 12 13  1  0
 12 14  1  0
 14 15  2  0
 14 41  1  0
 15 16  1  0
 16 17  1  0
 16 18  1  6
 16 22  1  0
 17 42  1  6
 17 43  1  0
 18 19  2  0
 18 20  1  0
 20 21  1  0
 20 23  1  0
 21 22  1  0
 21 44  1  1
 21 45  1  0
 22 46  1  6
 22 47  1  0
 23 24  2  0
 23 32  1  0
 24 25  1  0
 24 29  1  0
 25 26  2  0
 25 48  1  0
 26 27  1  0
 26 49  1  0
 27 28  2  0
 27 50  1  0
 28 29  1  0
 28 51  1  0
 29 30  2  0
 30 31  1  0
 30 52  1  0
 31 32  2  0
 32 53  1  0
M  END
$$$$
