LIG(A-306)
     RDKit          3D

 33 35  0  0  0  0  0  0  0  0999 V2000
   -9.1224    0.5210  -20.9806 O   0  0  0  0  0  0  0  0  0  0  0  0
   -8.5093   -0.4698  -21.3820 C   0  0  0  0  0  0  0  0  0  0  0  0
   -8.8965   -1.1873  -22.6568 C   0  0  1  0  0  0  0  0  0  0  0  0
  -10.3929   -1.3257  -22.7722 C   0  0  0  0  0  0  0  0  0  0  0  0
  -11.0811   -2.2990  -22.0613 C   0  0  0  0  0  0  0  0  0  0  0  0
  -12.4534   -2.3707  -22.1986 C   0  0  0  0  0  0  0  0  0  0  0  0
  -11.0097   -0.4407  -23.5750 N   0  0  0  0  0  0  0  0  0  0  0  0
  -12.3414   -0.5225  -23.6976 C   0  0  0  0  0  0  0  0  0  0  0  0
  -13.0826   -1.4869  -23.0382 C   0  0  0  0  0  0  0  0  0  0  0  0
  -14.7864   -1.6616  -23.3402 Cl  0  0  0  0  0  0  0  0  0  0  0  0
   -7.4275   -0.9891  -20.7638 N   0  0  0  0  0  0  0  0  0  0  0  0
   -6.7047   -0.4273  -19.7024 C   0  0  0  0  0  0  0  0  0  0  0  0
   -5.6604    0.4889  -20.0277 C   0  0  0  0  0  0  0  0  0  0  0  0
   -5.1551    0.6771  -21.3396 C   0  0  0  0  0  0  0  0  0  0  0  0
   -4.1613    1.5798  -21.5870 C   0  0  0  0  0  0  0  0  0  0  0  0
   -3.6241    2.3396  -20.5581 C   0  0  0  0  0  0  0  0  0  0  0  0
   -4.0692    2.1873  -19.2748 C   0  0  0  0  0  0  0  0  0  0  0  0
   -5.0921    1.2535  -18.9733 C   0  0  0  0  0  0  0  0  0  0  0  0
   -5.5715    1.0193  -17.6599 C   0  0  0  0  0  0  0  0  0  0  0  0
   -6.5132    0.1359  -17.3545 N   0  0  0  0  0  0  0  0  0  0  0  0
   -7.0586   -0.5607  -18.3606 C   0  0  0  0  0  0  0  0  0  0  0  0
   -8.5218   -0.6151  -23.5183 H   0  0  0  0  0  0  0  0  0  0  0  0
   -8.4426   -2.1892  -22.6565 H   0  0  0  0  0  0  0  0  0  0  0  0
  -10.5547   -2.9854  -21.4146 H   0  0  0  0  0  0  0  0  0  0  0  0
  -13.0217   -3.1103  -21.6542 H   0  0  0  0  0  0  0  0  0  0  0  0
  -12.8525    0.1869  -24.3315 H   0  0  0  0  0  0  0  0  0  0  0  0
   -7.1057   -1.8739  -21.1009 H   0  0  0  0  0  0  0  0  0  0  0  0
   -5.5626    0.0978  -22.1549 H   0  0  0  0  0  0  0  0  0  0  0  0
   -3.7897    1.7036  -22.5935 H   0  0  0  0  0  0  0  0  0  0  0  0
   -2.8470    3.0581  -20.7732 H   0  0  0  0  0  0  0  0  0  0  0  0
   -3.6382    2.7834  -18.4841 H   0  0  0  0  0  0  0  0  0  0  0  0
   -5.1421    1.5977  -16.8553 H   0  0  0  0  0  0  0  0  0  0  0  0
   -7.8281   -1.2774  -18.1143 H   0  0  0  0  0  0  0  0  0  0  0  0
  1  2  2  0
  2  3  1  0
  2 11  1  0
  3  4  1  0
  3 22  1  6
  3 23  1  0
  4  5  2  0
  4  7  1  0
  5  6  1  0
  5 24  1  0
  6  9  2  0
  6 25  1  0
  7  8  2  0
  8  9  1  0
  8 26  1  0
  9 10  1  0
 11 12  1  0
 11 27  1  0
 12 13  2  0
 12 21  1  0
 13 14  1  0
 13 18  1  0
 14 15  2  0
 14 28  1  0
 15 16  1  0
 15 29  1  0
 16 17  2  0
 16 30  1  0
 17 18  1  0
 17 31  1  0
 18 19  2  0
 19 20  1  0
 19 32  1  0
 20 21  2  0
 21 33  1  0
M  END
$$$$
