LIG(A-306)
     RDKit          3D

 51 54  0  0  1  0  0  0  0  0999 V2000
   14.0105   -1.5484   21.4076 Cl  0  0  0  0  0  0  0  0  0  0  0  0
   12.8105   -0.7886   22.4157 C   0  0  0  0  0  0  0  0  0  0  0  0
   11.4955   -1.1987   22.3198 C   0  0  0  0  0  0  0  0  0  0  0  0
   13.1894    0.2315   23.2577 C   0  0  0  0  0  0  0  0  0  0  0  0
   12.2264    0.8553   24.0298 C   0  0  0  0  0  0  0  0  0  0  0  0
   10.8854    0.4852   23.9458 C   0  0  0  0  0  0  0  0  0  0  0  0
    9.8644    1.2100   24.7959 C   0  0  1  0  0  0  0  0  0  0  0  0
    8.4844    0.9728   24.3410 N   0  0  2  0  0  0  0  0  0  0  0  0
    7.4884    1.5937   25.2061 C   0  0  1  0  0  0  0  0  0  0  0  0
    6.7952    2.7976   24.5911 C   0  0  0  0  0  0  0  0  0  0  0  0
    5.9421    3.4125   25.2262 O   0  0  0  0  0  0  0  0  0  0  0  0
    7.1410    3.1327   23.3511 N   0  0  0  0  0  0  0  0  0  0  0  0
    6.5118    4.2296   22.6382 C   0  0  1  0  0  0  0  0  0  0  0  0
   10.5155   -0.5469   23.0699 C   0  0  0  0  0  0  0  0  0  0  0  0
    9.0495   -0.8951   22.8940 C   0  0  1  0  0  0  0  0  0  0  0  0
    8.2516   -0.4542   24.1210 C   0  0  1  0  0  0  0  0  0  0  0  0
    8.5184   -0.1381   21.6740 C   0  0  0  0  0  0  0  0  0  0  0  0
    8.9682    0.9569   21.3350 O   0  0  0  0  0  0  0  0  0  0  0  0
    7.4734   -0.7383   21.0541 N   0  0  0  0  0  0  0  0  0  0  0  0
    6.6923   -0.2444   19.9851 C   0  0  0  0  0  0  0  0  0  0  0  0
    5.5752    0.5915   20.2982 C   0  0  0  0  0  0  0  0  0  0  0  0
    5.0702    0.7664   21.6102 C   0  0  0  0  0  0  0  0  0  0  0  0
    4.0001    1.5763   21.8493 C   0  0  0  0  0  0  0  0  0  0  0  0
    3.4100    2.2352   20.7974 C   0  0  0  0  0  0  0  0  0  0  0  0
    2.3629    3.0581   21.0664 F   0  0  0  0  0  0  0  0  0  0  0  0
    3.8239    2.1203   19.5113 C   0  0  0  0  0  0  0  0  0  0  0  0
    4.9300    1.2804   19.2292 C   0  0  0  0  0  0  0  0  0  0  0  0
    5.4300    1.0785   17.9172 C   0  0  0  0  0  0  0  0  0  0  0  0
    6.4660    0.3026   17.6261 N   0  0  0  0  0  0  0  0  0  0  0  0
    7.0702   -0.3313   18.6431 C   0  0  0  0  0  0  0  0  0  0  0  0
   11.2273   -2.0180   21.6691 H   0  0  0  0  0  0  0  0  0  0  0  0
   14.2228    0.5402   23.3148 H   0  0  0  0  0  0  0  0  0  0  0  0
   12.5184    1.6426   24.7091 H   0  0  0  0  0  0  0  0  0  0  0  0
    9.9585    0.8614   25.8350 H   0  0  0  0  0  0  0  0  0  0  0  0
   10.0702    2.2896   24.7513 H   0  0  0  0  0  0  0  0  0  0  0  0
    8.4017    1.4151   23.4480 H   0  0  0  0  0  0  0  0  0  0  0  0
    6.7235    0.8410   25.4475 H   0  0  0  0  0  0  0  0  0  0  0  0
    7.9883    1.9182   26.1307 H   0  0  0  0  0  0  0  0  0  0  0  0
    7.8604    2.6101   22.8936 H   0  0  0  0  0  0  0  0  0  0  0  0
    6.9569    4.3196   21.6362 H   0  0  0  0  0  0  0  0  0  0  0  0
    5.4333    4.0348   22.5441 H   0  0  0  0  0  0  0  0  0  0  0  0
    6.6683    5.1658   23.1942 H   0  0  0  0  0  0  0  0  0  0  0  0
    8.9344   -1.9784   22.7415 H   0  0  0  0  0  0  0  0  0  0  0  0
    8.5820   -1.0238   25.0022 H   0  0  0  0  0  0  0  0  0  0  0  0
    7.1798   -0.6327   23.9498 H   0  0  0  0  0  0  0  0  0  0  0  0
    7.2237   -1.6443   21.3960 H   0  0  0  0  0  0  0  0  0  0  0  0
    5.5406    0.2500   22.4340 H   0  0  0  0  0  0  0  0  0  0  0  0
    3.6207    1.6986   22.8530 H   0  0  0  0  0  0  0  0  0  0  0  0
    3.3220    2.6567   18.7197 H   0  0  0  0  0  0  0  0  0  0  0  0
    4.9358    1.5887   17.1036 H   0  0  0  0  0  0  0  0  0  0  0  0
    7.9163   -0.9589   18.4048 H   0  0  0  0  0  0  0  0  0  0  0  0
  1  2  1  0
  2  3  2  0
  2  4  1  0
  3 14  1  0
  3 31  1  0
  4  5  2  0
  4 32  1  0
  5  6  1  0
  5 33  1  0
  6  7  1  0
  6 14  2  0
  7  8  1  0
  7 34  1  1
  7 35  1  0
  8  9  1  0
  8 16  1  0
  8 36  1  6
  9 10  1  0
  9 37  1  1
  9 38  1  0
 10 11  2  0
 10 12  1  0
 12 13  1  0
 12 39  1  0
 13 40  1  6
 13 41  1  0
 13 42  1  0
 14 15  1  0
 15 16  1  0
 15 17  1  0
 15 43  1  6
 16 44  1  1
 16 45  1  0
 17 18  2  0
 17 19  1  0
 19 20  1  0
 19 46  1  0
 20 21  2  0
 20 30  1  0
 21 22  1  0
 21 27  1  0
 22 23  2  0
 22 47  1  0
 23 24  1  0
 23 48  1  0
 24 25  1  0
 24 26  2  0
 26 27  1  0
 26 49  1  0
 27 28  2  0
 28 29  1  0
 28 50  1  0
 29 30  2  0
 30 51  1  0
M  CHG  1   8   1
M  END
$$$$
