LIG(A-305)
     RDKit          3D

 34 36  0  0  1  0  0  0  0  0999 V2000
   13.9361   -1.8544   21.2691 Cl  0  0  0  0  0  0  0  0  0  0  0  0
   12.7881   -1.0135   22.2561 C   0  0  0  0  0  0  0  0  0  0  0  0
   13.2351   -0.0204   23.1120 C   0  0  0  0  0  0  0  0  0  0  0  0
   12.3230    0.6706   23.8890 C   0  0  0  0  0  0  0  0  0  0  0  0
   11.4561   -1.3455   22.1551 C   0  0  0  0  0  0  0  0  0  0  0  0
   10.5391   -0.6325   22.9101 C   0  0  0  0  0  0  0  0  0  0  0  0
   10.9831    0.3645   23.7560 C   0  0  0  0  0  0  0  0  0  0  0  0
    9.9190    1.0325   24.3250 O   0  0  0  0  0  0  0  0  0  0  0  0
    8.7331    0.2044   24.1511 C   0  0  1  0  0  0  0  0  0  0  0  0
    9.0341   -0.6556   22.9251 C   0  0  1  0  0  0  0  0  0  0  0  0
    8.5881    0.0404   21.6411 C   0  0  0  0  0  0  0  0  0  0  0  0
    9.1240    1.0684   21.2300 O   0  0  0  0  0  0  0  0  0  0  0  0
    7.5441   -0.5407   21.0451 N   0  0  0  0  0  0  0  0  0  0  0  0
    6.8401    0.0472   19.9831 C   0  0  0  0  0  0  0  0  0  0  0  0
    5.6530    0.7402   20.2521 C   0  0  0  0  0  0  0  0  0  0  0  0
    5.1480    0.9242   21.6640 C   0  0  1  0  0  0  0  0  0  0  0  0
    4.0120    1.7782   21.7470 O   0  0  0  0  0  0  0  0  0  0  0  0
    7.3001   -0.0208   18.6731 C   0  0  0  0  0  0  0  0  0  0  0  0
    6.6480    0.5292   17.6481 N   0  0  0  0  0  0  0  0  0  0  0  0
    5.5060    1.1741   17.9110 C   0  0  0  0  0  0  0  0  0  0  0  0
    4.9740    1.2971   19.1780 C   0  0  0  0  0  0  0  0  0  0  0  0
   14.2880    0.2125   23.1723 H   0  0  0  0  0  0  0  0  0  0  0  0
   12.6508    1.4307   24.5826 H   0  0  0  0  0  0  0  0  0  0  0  0
   11.1335   -2.1432   21.5025 H   0  0  0  0  0  0  0  0  0  0  0  0
    8.5682   -0.4272   25.0365 H   0  0  0  0  0  0  0  0  0  0  0  0
    7.8455    0.8305   23.9767 H   0  0  0  0  0  0  0  0  0  0  0  0
    8.6247   -1.6726   23.0152 H   0  0  0  0  0  0  0  0  0  0  0  0
    7.2494   -1.4388   21.3715 H   0  0  0  0  0  0  0  0  0  0  0  0
    4.8747   -0.0615   22.0687 H   0  0  0  0  0  0  0  0  0  0  0  0
    5.9565    1.3582   22.2706 H   0  0  0  0  0  0  0  0  0  0  0  0
    4.2925    2.6846   21.7000 H   0  0  0  0  0  0  0  0  0  0  0  0
    8.2257   -0.5415   18.4770 H   0  0  0  0  0  0  0  0  0  0  0  0
    4.9715    1.6229   17.0868 H   0  0  0  0  0  0  0  0  0  0  0  0
    4.0416    1.8199   19.3317 H   0  0  0  0  0  0  0  0  0  0  0  0
  1  2  1  0
  2  3  2  0
  2  5  1  0
  3  4  1  0
  3 22  1  0
  4  7  2  0
  4 23  1  0
  5  6  2  0
  5 24  1  0
  6  7  1  0
  6 10  1  0
  7  8  1  0
  8  9  1  0
  9 10  1  0
  9 25  1  1
  9 26  1  0
 10 11  1  0
 10 27  1  1
 11 12  2  0
 11 13  1  0
 13 14  1  0
 13 28  1  0
 14 15  2  0
 14 18  1  0
 15 16  1  0
 15 21  1  0
 16 17  1  0
 16 29  1  1
 16 30  1  0
 17 31  1  0
 18 19  2  0
 18 32  1  0
 19 20  1  0
 20 21  2  0
 20 33  1  0
 21 34  1  0
M  END
$$$$
