LIG(A-306)
     RDKit          3D

 56 60  0  0  1  0  0  0  0  0999 V2000
   10.6714    3.2283   24.3766 O   0  0  0  0  0  0  0  0  0  0  0  0
   10.3308    2.0782   24.1625 C   0  0  0  0  0  0  0  0  0  0  0  0
    8.9979    1.6748   24.3007 N   0  0  0  0  0  0  0  0  0  0  0  0
    7.7976    2.7854   24.5259 S   0  0  1  0  0  0  0  0  0  0  0  0
    6.5919    2.0510   24.7480 O   0  0  0  0  0  0  0  0  0  0  0  0
    8.2294    3.7164   25.5199 O   0  0  0  0  0  0  0  0  0  0  0  0
    7.6632    3.6485   22.9710 C   0  0  1  0  0  0  0  0  0  0  0  0
    6.8778    4.9702   23.0082 C   0  0  1  0  0  0  0  0  0  0  0  0
    5.9925    5.4010   21.8903 C   0  0  1  0  0  0  0  0  0  0  0  0
    5.4028    4.9818   23.2163 C   0  0  2  0  0  0  0  0  0  0  0  0
    7.6755    6.0244   23.5832 O   0  0  0  0  0  0  0  0  0  0  0  0
    8.5722    6.7618   22.7391 C   0  0  1  0  0  0  0  0  0  0  0  0
   11.2430    1.0715   23.5944 C   0  0  0  0  0  0  0  0  0  0  0  0
   12.6079    1.3609   23.5252 C   0  0  0  0  0  0  0  0  0  0  0  0
   13.4811    0.4932   22.8971 C   0  0  0  0  0  0  0  0  0  0  0  0
   12.9864   -0.6619   22.3350 C   0  0  0  0  0  0  0  0  0  0  0  0
   14.0856   -1.7545   21.5368 Cl  0  0  0  0  0  0  0  0  0  0  0  0
   11.6385   -0.9733   22.3752 C   0  0  0  0  0  0  0  0  0  0  0  0
   10.7463   -0.0996   23.0023 C   0  0  0  0  0  0  0  0  0  0  0  0
    9.2564   -0.3870   22.9815 C   0  0  1  0  0  0  0  0  0  0  0  0
    8.5773    0.2557   24.1916 C   0  0  2  0  0  0  0  0  0  0  0  0
    8.6561    0.2139   21.7076 C   0  0  0  0  0  0  0  0  0  0  0  0
    9.0807    1.2580   21.2156 O   0  0  0  0  0  0  0  0  0  0  0  0
    7.5862   -0.4484   21.2107 N   0  0  0  0  0  0  0  0  0  0  0  0
    6.7870   -0.0586   20.1138 C   0  0  0  0  0  0  0  0  0  0  0  0
    5.6717    0.8001   20.3630 C   0  0  0  0  0  0  0  0  0  0  0  0
    5.1548    1.0678   21.6571 C   0  0  0  0  0  0  0  0  0  0  0  0
    4.0886    1.9065   21.8272 C   0  0  0  0  0  0  0  0  0  0  0  0
    3.4932    2.5284   20.7364 C   0  0  0  0  0  0  0  0  0  0  0  0
    3.9562    2.3046   19.4713 C   0  0  0  0  0  0  0  0  0  0  0  0
    5.0444    1.4270   19.2461 C   0  0  0  0  0  0  0  0  0  0  0  0
    5.5404    1.1212   17.9550 C   0  0  0  0  0  0  0  0  0  0  0  0
    6.5466    0.2885   17.7228 N   0  0  0  0  0  0  0  0  0  0  0  0
    7.1409   -0.2794   18.7827 C   0  0  0  0  0  0  0  0  0  0  0  0
    8.6813    3.8700   22.6182 H   0  0  0  0  0  0  0  0  0  0  0  0
    7.1645    2.9790   22.2547 H   0  0  0  0  0  0  0  0  0  0  0  0
    5.9654    6.4573   21.5842 H   0  0  0  0  0  0  0  0  0  0  0  0
    5.8704    4.7595   21.0052 H   0  0  0  0  0  0  0  0  0  0  0  0
    4.9452    5.7320   23.8781 H   0  0  0  0  0  0  0  0  0  0  0  0
    4.8503    4.0342   23.2990 H   0  0  0  0  0  0  0  0  0  0  0  0
    9.0974    7.5216   23.3364 H   0  0  0  0  0  0  0  0  0  0  0  0
    9.3060    6.0736   22.2942 H   0  0  0  0  0  0  0  0  0  0  0  0
    8.0003    7.2552   21.9393 H   0  0  0  0  0  0  0  0  0  0  0  0
   12.9845    2.2717   23.9670 H   0  0  0  0  0  0  0  0  0  0  0  0
   14.5362    0.7182   22.8479 H   0  0  0  0  0  0  0  0  0  0  0  0
   11.2783   -1.8863   21.9243 H   0  0  0  0  0  0  0  0  0  0  0  0
    9.0855   -1.4736   22.9943 H   0  0  0  0  0  0  0  0  0  0  0  0
    7.4854    0.2055   24.0685 H   0  0  0  0  0  0  0  0  0  0  0  0
    8.8686   -0.2840   25.1047 H   0  0  0  0  0  0  0  0  0  0  0  0
    7.3355   -1.3021   21.6672 H   0  0  0  0  0  0  0  0  0  0  0  0
    5.6097    0.6028   22.5192 H   0  0  0  0  0  0  0  0  0  0  0  0
    3.7047    2.0877   22.8203 H   0  0  0  0  0  0  0  0  0  0  0  0
    2.6572    3.1945   20.8904 H   0  0  0  0  0  0  0  0  0  0  0  0
    3.4879    2.8017   18.6346 H   0  0  0  0  0  0  0  0  0  0  0  0
    5.0698    1.5957   17.1065 H   0  0  0  0  0  0  0  0  0  0  0  0
    7.9568   -0.9604   18.5907 H   0  0  0  0  0  0  0  0  0  0  0  0
  1  2  2  0
  2  3  1  0
  2 13  1  0
  4  3  1  6
  3 21  1  0
  4  5  2  0
  4  6  2  0
  4  7  1  0
  7  8  1  0
  7 35  1  6
  7 36  1  0
  8  9  1  0
  8 10  1  0
  8 11  1  1
  9 10  1  0
  9 37  1  6
  9 38  1  0
 10 39  1  1
 10 40  1  0
 11 12  1  0
 12 41  1  1
 12 42  1  0
 12 43  1  0
 13 14  2  0
 13 19  1  0
 14 15  1  0
 14 44  1  0
 15 16  2  0
 15 45  1  0
 16 17  1  0
 16 18  1  0
 18 19  2  0
 18 46  1  0
 19 20  1  0
 20 21  1  0
 20 22  1  0
 20 47  1  6
 21 48  1  6
 21 49  1  0
 22 23  2  0
 22 24  1  0
 24 25  1  0
 24 50  1  0
 25 26  2  0
 25 34  1  0
 26 27  1  0
 26 31  1  0
 27 28  2  0
 27 51  1  0
 28 29  1  0
 28 52  1  0
 29 30  2  0
 29 53  1  0
 30 31  1  0
 30 54  1  0
 31 32  2  0
 32 33  1  0
 32 55  1  0
 33 34  2  0
 34 56  1  0
M  END
$$$$
