LIG(A-305)
     RDKit          3D

 16 16  0  0  0  0  0  0  0  0999 V2000
    6.1951   -5.1504   19.7593 N   0  0  1  0  0  0  0  0  0  0  0  0
    6.9471   -4.1214   19.9442 C   0  0  1  0  0  0  0  0  0  0  0  0
    6.6752   -3.2954   21.1792 C   0  0  0  0  0  0  0  0  0  0  0  0
    7.6742   -2.5174   21.6292 N   0  0  0  0  0  0  0  0  0  0  0  0
    7.4342   -1.8054   22.7442 C   0  0  0  0  0  0  0  0  0  0  0  0
    6.2363   -1.8463   23.4202 C   0  0  0  0  0  0  0  0  0  0  0  0
    5.2792   -2.6833   22.8872 C   0  0  0  0  0  0  0  0  0  0  0  0
    5.4692   -3.4013   21.7692 N   0  0  0  0  0  0  0  0  0  0  0  0
    6.6079   -5.7461   19.0703 H   0  0  0  0  0  0  0  0  0  0  0  0
    6.0992   -5.6519   20.6191 H   0  0  0  0  0  0  0  0  0  0  0  0
    5.2937   -4.8522   19.4451 H   0  0  0  0  0  0  0  0  0  0  0  0
    7.9872   -4.4749   20.0020 H   0  0  0  0  0  0  0  0  0  0  0  0
    6.8316   -3.4630   19.0707 H   0  0  0  0  0  0  0  0  0  0  0  0
    8.2195   -1.1708   23.1277 H   0  0  0  0  0  0  0  0  0  0  0  0
    6.0575   -1.2610   24.3101 H   0  0  0  0  0  0  0  0  0  0  0  0
    4.3293   -2.7653   23.3946 H   0  0  0  0  0  0  0  0  0  0  0  0
  1  2  1  0
  1  9  1  6
  1 10  1  0
  1 11  1  0
  2  3  1  0
  2 12  1  1
  2 13  1  0
  3  4  2  0
  3  8  1  0
  4  5  1  0
  5  6  2  0
  5 14  1  0
  6  7  1  0
  6 15  1  0
  7  8  2  0
  7 16  1  0
M  CHG  1   1   1
M  END
$$$$
