LIG(A-306)
     RDKit          3D

 51 54  0  0  1  0  0  0  0  0999 V2000
  -14.3331   -2.3155  -21.3544 Cl  0  0  0  0  0  0  0  0  0  0  0  0
  -13.2394   -1.4556  -22.4009 C   0  0  0  0  0  0  0  0  0  0  0  0
  -11.8829   -1.7003  -22.3035 C   0  0  0  0  0  0  0  0  0  0  0  0
  -13.7473   -0.5482  -23.3000 C   0  0  0  0  0  0  0  0  0  0  0  0
  -12.8809    0.1036  -24.1549 C   0  0  0  0  0  0  0  0  0  0  0  0
  -11.5074   -0.1269  -24.1006 C   0  0  0  0  0  0  0  0  0  0  0  0
  -10.6231    0.5245  -25.1375 C   0  0  1  0  0  0  0  0  0  0  0  0
   -9.2236    0.5195  -24.6974 N   0  0  0  0  0  0  0  0  0  0  0  0
   -8.1649    1.5301  -25.3403 S   0  0  1  0  0  0  0  0  0  0  0  0
   -6.8987    1.2979  -24.7378 O   0  0  0  0  0  0  0  0  0  0  0  0
   -8.3239    1.4984  -26.7532 O   0  0  0  0  0  0  0  0  0  0  0  0
   -8.7528    2.9127  -24.7906 N   0  0  0  0  0  0  0  0  0  0  0  0
   -8.2588    3.4159  -23.5045 C   0  0  1  0  0  0  0  0  0  0  0  0
   -9.1105    3.9450  -25.7696 C   0  0  1  0  0  0  0  0  0  0  0  0
  -10.9973   -1.0206  -23.1414 C   0  0  0  0  0  0  0  0  0  0  0  0
   -9.4985   -1.2139  -22.9790 C   0  0  1  0  0  0  0  0  0  0  0  0
   -8.7482   -0.8003  -24.2466 C   0  0  2  0  0  0  0  0  0  0  0  0
   -8.9949   -0.4083  -21.7809 C   0  0  0  0  0  0  0  0  0  0  0  0
   -9.5579    0.6198  -21.3975 O   0  0  0  0  0  0  0  0  0  0  0  0
   -7.8714   -0.9061  -21.2021 N   0  0  0  0  0  0  0  0  0  0  0  0
   -7.1606   -0.3807  -20.0982 C   0  0  0  0  0  0  0  0  0  0  0  0
   -6.0438    0.4834  -20.3437 C   0  0  0  0  0  0  0  0  0  0  0  0
   -5.5308    0.7606  -21.6364 C   0  0  0  0  0  0  0  0  0  0  0  0
   -4.4750    1.6086  -21.8059 C   0  0  0  0  0  0  0  0  0  0  0  0
   -3.8829    2.2334  -20.7125 C   0  0  0  0  0  0  0  0  0  0  0  0
   -4.3368    1.9931  -19.4467 C   0  0  0  0  0  0  0  0  0  0  0  0
   -5.4197    1.1070  -19.2244 C   0  0  0  0  0  0  0  0  0  0  0  0
   -5.9158    0.7987  -17.9338 C   0  0  0  0  0  0  0  0  0  0  0  0
   -6.9305   -0.0236  -17.7043 N   0  0  0  0  0  0  0  0  0  0  0  0
   -7.5293   -0.5824  -18.7664 C   0  0  0  0  0  0  0  0  0  0  0  0
  -11.5099   -2.4134  -21.5833 H   0  0  0  0  0  0  0  0  0  0  0  0
  -14.8080   -0.3482  -23.3372 H   0  0  0  0  0  0  0  0  0  0  0  0
  -13.2738    0.8035  -24.8775 H   0  0  0  0  0  0  0  0  0  0  0  0
  -10.7067   -0.0298  -26.0839 H   0  0  0  0  0  0  0  0  0  0  0  0
  -10.9505    1.5634  -25.2908 H   0  0  0  0  0  0  0  0  0  0  0  0
   -8.7559    4.3682  -23.2674 H   0  0  0  0  0  0  0  0  0  0  0  0
   -8.4776    2.6817  -22.7152 H   0  0  0  0  0  0  0  0  0  0  0  0
   -7.1721    3.5752  -23.5662 H   0  0  0  0  0  0  0  0  0  0  0  0
   -9.4972    4.8308  -25.2444 H   0  0  0  0  0  0  0  0  0  0  0  0
   -8.2191    4.2236  -26.3508 H   0  0  0  0  0  0  0  0  0  0  0  0
   -9.8834    3.5546  -26.4480 H   0  0  0  0  0  0  0  0  0  0  0  0
   -9.3012   -2.2793  -22.7899 H   0  0  0  0  0  0  0  0  0  0  0  0
   -7.6706   -0.7471  -24.0326 H   0  0  0  0  0  0  0  0  0  0  0  0
   -8.9288   -1.5435  -25.0372 H   0  0  0  0  0  0  0  0  0  0  0  0
   -7.5029   -1.7440  -21.6046 H   0  0  0  0  0  0  0  0  0  0  0  0
   -5.9824    0.2940  -22.4995 H   0  0  0  0  0  0  0  0  0  0  0  0
   -4.0948    1.7967  -22.7991 H   0  0  0  0  0  0  0  0  0  0  0  0
   -3.0582    2.9135  -20.8658 H   0  0  0  0  0  0  0  0  0  0  0  0
   -3.8658    2.4832  -18.6075 H   0  0  0  0  0  0  0  0  0  0  0  0
   -5.4377    1.2623  -17.0836 H   0  0  0  0  0  0  0  0  0  0  0  0
   -8.3637   -1.2413  -18.5765 H   0  0  0  0  0  0  0  0  0  0  0  0
  1  2  1  0
  2  3  2  0
  2  4  1  0
  3 15  1  0
  3 31  1  0
  4  5  2  0
  4 32  1  0
  5  6  1  0
  5 33  1  0
  6  7  1  0
  6 15  2  0
  7  8  1  0
  7 34  1  6
  7 35  1  0
  8  9  1  0
  8 17  1  0
  9 10  2  0
  9 11  2  0
  9 12  1  1
 12 13  1  0
 12 14  1  0
 13 36  1  1
 13 37  1  0
 13 38  1  0
 14 39  1  1
 14 40  1  0
 14 41  1  0
 15 16  1  0
 16 17  1  0
 16 18  1  0
 16 42  1  1
 17 43  1  1
 17 44  1  0
 18 19  2  0
 18 20  1  0
 20 21  1  0
 20 45  1  0
 21 22  2  0
 21 30  1  0
 22 23  1  0
 22 27  1  0
 23 24  2  0
 23 46  1  0
 24 25  1  0
 24 47  1  0
 25 26  2  0
 25 48  1  0
 26 27  1  0
 26 49  1  0
 27 28  2  0
 28 29  1  0
 28 50  1  0
 29 30  2  0
 30 51  1  0
M  END
$$$$
