LIG(A-305)
     RDKit          3D

 42 45  0  0  1  0  0  0  0  0999 V2000
    9.2204    1.5102   21.2971 O   0  0  0  0  0  0  0  0  0  0  0  0
    8.8875    0.4222   21.7601 C   0  0  0  0  0  0  0  0  0  0  0  0
    9.5396   -0.1417   23.0211 C   0  0  1  0  0  0  0  0  0  0  0  0
   11.0486   -0.1106   22.8900 C   0  0  0  0  0  0  0  0  0  0  0  0
   11.7246   -0.9806   22.0300 C   0  0  0  0  0  0  0  0  0  0  0  0
   13.0936   -0.8755   21.8860 C   0  0  0  0  0  0  0  0  0  0  0  0
   13.8996   -1.8795   20.7110 Cl  0  0  0  0  0  0  0  0  0  0  0  0
   13.8245    0.0526   22.5920 C   0  0  0  0  0  0  0  0  0  0  0  0
   13.1725    0.9065   23.4610 C   0  0  0  0  0  0  0  0  0  0  0  0
   11.7995    0.8235   23.6050 C   0  0  0  0  0  0  0  0  0  0  0  0
   11.2355    1.7114   24.4910 O   0  0  0  0  0  0  0  0  0  0  0  0
    9.8155    1.9013   24.4260 C   0  0  1  0  0  0  0  0  0  0  0  0
    9.0816    0.5823   24.3111 C   0  0  1  0  0  0  0  0  0  0  0  0
    7.5725    0.8042   24.3391 C   0  0  1  0  0  0  0  0  0  0  0  0
    7.9445   -0.3659   21.2071 N   0  0  0  0  0  0  0  0  0  0  0  0
    7.0855   -0.0499   20.1412 C   0  0  0  0  0  0  0  0  0  0  0  0
    5.8194    0.5480   20.4402 C   0  0  0  0  0  0  0  0  0  0  0  0
    5.2975    0.6760   21.7532 C   0  0  0  0  0  0  0  0  0  0  0  0
    4.1084    1.3119   21.9772 C   0  0  0  0  0  0  0  0  0  0  0  0
    3.3874    1.8548   20.9222 C   0  0  0  0  0  0  0  0  0  0  0  0
    3.8433    1.7488   19.6392 C   0  0  0  0  0  0  0  0  0  0  0  0
    5.0614    1.0809   19.3612 C   0  0  0  0  0  0  0  0  0  0  0  0
    5.5904    0.9419   18.0552 C   0  0  0  0  0  0  0  0  0  0  0  0
    6.7534    0.3630   17.7762 N   0  0  0  0  0  0  0  0  0  0  0  0
    7.4684   -0.1149   18.8022 C   0  0  0  0  0  0  0  0  0  0  0  0
    9.2332   -1.1944   23.1104 H   0  0  0  0  0  0  0  0  0  0  0  0
   11.1779   -1.7323   21.4802 H   0  0  0  0  0  0  0  0  0  0  0  0
   14.8957    0.1127   22.4682 H   0  0  0  0  0  0  0  0  0  0  0  0
   13.7333    1.6365   24.0258 H   0  0  0  0  0  0  0  0  0  0  0  0
    9.4822    2.4169   25.3387 H   0  0  0  0  0  0  0  0  0  0  0  0
    9.5778    2.5198   23.5479 H   0  0  0  0  0  0  0  0  0  0  0  0
    9.3556   -0.0462   25.1712 H   0  0  0  0  0  0  0  0  0  0  0  0
    7.0574   -0.1640   24.2547 H   0  0  0  0  0  0  0  0  0  0  0  0
    7.2907    1.2879   25.2860 H   0  0  0  0  0  0  0  0  0  0  0  0
    7.2812    1.4491   23.4970 H   0  0  0  0  0  0  0  0  0  0  0  0
    7.8448   -1.2799   21.6004 H   0  0  0  0  0  0  0  0  0  0  0  0
    5.8472    0.2653   22.5872 H   0  0  0  0  0  0  0  0  0  0  0  0
    3.7264    1.3928   22.9841 H   0  0  0  0  0  0  0  0  0  0  0  0
    2.4564    2.3662   21.1181 H   0  0  0  0  0  0  0  0  0  0  0  0
    3.2708    2.1777   18.8301 H   0  0  0  0  0  0  0  0  0  0  0  0
    5.0105    1.3321   17.2318 H   0  0  0  0  0  0  0  0  0  0  0  0
    8.4133   -0.5865   18.5754 H   0  0  0  0  0  0  0  0  0  0  0  0
  1  2  2  0
  2  3  1  0
  2 15  1  0
  3  4  1  0
  3 13  1  0
  3 26  1  1
  4  5  2  0
  4 10  1  0
  5  6  1  0
  5 27  1  0
  6  7  1  0
  6  8  2  0
  8  9  1  0
  8 28  1  0
  9 10  2  0
  9 29  1  0
 10 11  1  0
 11 12  1  0
 12 13  1  0
 12 30  1  1
 12 31  1  0
 13 14  1  0
 13 32  1  1
 14 33  1  6
 14 34  1  0
 14 35  1  0
 15 16  1  0
 15 36  1  0
 16 17  2  0
 16 25  1  0
 17 18  1  0
 17 22  1  0
 18 19  2  0
 18 37  1  0
 19 20  1  0
 19 38  1  0
 20 21  2  0
 20 39  1  0
 21 22  1  0
 21 40  1  0
 22 23  2  0
 23 24  1  0
 23 41  1  0
 24 25  2  0
 25 42  1  0
M  END
$$$$
