LIG(B-306)
     RDKit          3D

 37 39  0  0  0  0  0  0  0  0999 V2000
  -12.0853   -0.7058  -23.4543 C   0  0  0  0  0  0  0  0  0  0  0  0
   -5.4194    0.7799  -21.0586 C   0  0  0  0  0  0  0  0  0  0  0  0
  -12.5112   -1.4630  -24.5869 C   0  0  0  0  0  0  0  0  0  0  0  0
  -13.6509   -2.0779  -24.2418 C   0  0  0  0  0  0  0  0  0  0  0  0
   -4.8101    1.5790  -18.3934 C   0  0  0  0  0  0  0  0  0  0  0  0
  -12.9971   -0.9339  -22.4930 C   0  0  0  0  0  0  0  0  0  0  0  0
   -9.1100   -0.0692  -21.6455 C   0  0  0  0  0  0  0  0  0  0  0  0
   -8.1453   -0.9840  -20.9138 C   0  0  1  0  0  0  0  0  0  0  0  0
   -5.9374    0.7989  -18.6808 C   0  0  0  0  0  0  0  0  0  0  0  0
   -4.0248    1.9325  -19.4500 C   0  0  0  0  0  0  0  0  0  0  0  0
   -4.3189    1.5370  -20.7551 C   0  0  0  0  0  0  0  0  0  0  0  0
   -9.7235   -0.5648  -22.7437 N   0  0  0  0  0  0  0  0  0  0  0  0
   -7.3795   -0.3023  -19.8825 N   0  0  0  0  0  0  0  0  0  0  0  0
  -10.8525    0.1350  -23.3493 C   0  0  2  0  0  0  0  0  0  0  0  0
   -7.7841   -0.3738  -18.5846 N   0  0  0  0  0  0  0  0  0  0  0  0
   -8.1128   -1.7357  -24.2482 C   0  0  1  0  0  0  0  0  0  0  0  0
   -6.2216    0.4196  -19.9800 C   0  0  0  0  0  0  0  0  0  0  0  0
   -9.3391   -1.8440  -23.3668 C   0  0  2  0  0  0  0  0  0  0  0  0
   -6.9207    0.2851  -17.8613 N   0  0  0  0  0  0  0  0  0  0  0  0
  -13.9776   -1.7732  -22.9524 O   0  0  0  0  0  0  0  0  0  0  0  0
   -9.3055    1.0776  -21.2602 O   0  0  0  0  0  0  0  0  0  0  0  0
   -5.6498    0.4816  -22.0707 H   0  0  0  0  0  0  0  0  0  0  0  0
  -12.0098   -1.5281  -25.5413 H   0  0  0  0  0  0  0  0  0  0  0  0
  -14.2272   -2.7211  -24.8902 H   0  0  0  0  0  0  0  0  0  0  0  0
   -4.5747    1.8853  -17.3848 H   0  0  0  0  0  0  0  0  0  0  0  0
  -12.9616   -0.5145  -21.4984 H   0  0  0  0  0  0  0  0  0  0  0  0
   -8.7210   -1.7947  -20.4433 H   0  0  0  0  0  0  0  0  0  0  0  0
   -7.4438   -1.4098  -21.6463 H   0  0  0  0  0  0  0  0  0  0  0  0
   -3.1480    2.5372  -19.2713 H   0  0  0  0  0  0  0  0  0  0  0  0
   -3.6565    1.8380  -21.5533 H   0  0  0  0  0  0  0  0  0  0  0  0
  -11.0841    1.0187  -22.7368 H   0  0  0  0  0  0  0  0  0  0  0  0
  -10.5620    0.4558  -24.3606 H   0  0  0  0  0  0  0  0  0  0  0  0
   -7.8825   -2.7211  -24.6794 H   0  0  0  0  0  0  0  0  0  0  0  0
   -8.3060   -1.0172  -25.0584 H   0  0  0  0  0  0  0  0  0  0  0  0
   -7.2589   -1.3899  -23.6473 H   0  0  0  0  0  0  0  0  0  0  0  0
  -10.1797   -2.2001  -23.9803 H   0  0  0  0  0  0  0  0  0  0  0  0
   -9.1325   -2.5728  -22.5692 H   0  0  0  0  0  0  0  0  0  0  0  0
  1  3  1  0
  1  6  2  0
  1 14  1  0
  2 11  1  0
  2 17  2  0
  2 22  1  0
  3  4  2  0
  3 23  1  0
  4 20  1  0
  4 24  1  0
  5  9  2  0
  5 10  1  0
  5 25  1  0
  6 20  1  0
  6 26  1  0
  7  8  1  0
  7 12  1  0
  7 21  2  0
  8 13  1  0
  8 27  1  1
  8 28  1  0
  9 17  1  0
  9 19  1  0
 10 11  2  0
 10 29  1  0
 11 30  1  0
 12 14  1  0
 12 18  1  0
 13 15  1  0
 13 17  1  0
 14 31  1  1
 14 32  1  0
 15 19  2  0
 16 18  1  0
 16 33  1  6
 16 34  1  0
 16 35  1  0
 18 36  1  6
 18 37  1  0
M  END
$$$$
