LIG(A-306)
     RDKit          3D

 38 40  0  0  1  0  0  0  0  0999 V2000
  -14.2065   -2.4305  -21.2778 Cl  0  0  0  0  0  0  0  0  0  0  0  0
  -12.9438   -1.7001  -22.2161 C   0  0  0  0  0  0  0  0  0  0  0  0
  -13.2261   -0.6921  -23.1290 C   0  0  0  0  0  0  0  0  0  0  0  0
  -14.8587   -0.2353  -23.4816 Cl  0  0  0  0  0  0  0  0  0  0  0  0
  -12.1944   -0.0269  -23.7606 C   0  0  0  0  0  0  0  0  0  0  0  0
  -10.8854   -0.3781  -23.4930 C   0  0  0  0  0  0  0  0  0  0  0  0
  -11.6336   -2.0637  -21.9683 C   0  0  0  0  0  0  0  0  0  0  0  0
  -10.5879   -1.3978  -22.5993 C   0  0  0  0  0  0  0  0  0  0  0  0
   -9.1587   -1.7651  -22.2810 C   0  0  1  0  0  0  0  0  0  0  0  0
   -8.3960   -2.1966  -23.4042 O   0  0  0  0  0  0  0  0  0  0  0  0
   -7.7930   -1.1216  -24.1352 C   0  0  1  0  0  0  0  0  0  0  0  0
   -8.4990   -0.7357  -21.3595 C   0  0  0  0  0  0  0  0  0  0  0  0
   -9.0456    0.3448  -21.1315 O   0  0  0  0  0  0  0  0  0  0  0  0
   -7.3532   -1.1394  -20.7720 N   0  0  0  0  0  0  0  0  0  0  0  0
   -6.6637   -0.5037  -19.7325 C   0  0  0  0  0  0  0  0  0  0  0  0
   -5.6401    0.4337  -20.0647 C   0  0  0  0  0  0  0  0  0  0  0  0
   -5.2122    0.6988  -21.3906 C   0  0  0  0  0  0  0  0  0  0  0  0
   -4.2540    1.6366  -21.6443 C   0  0  0  0  0  0  0  0  0  0  0  0
   -3.6715    2.3512  -20.6072 C   0  0  0  0  0  0  0  0  0  0  0  0
   -4.0472    2.1300  -19.3144 C   0  0  0  0  0  0  0  0  0  0  0  0
   -5.0443    1.1724  -19.0074 C   0  0  0  0  0  0  0  0  0  0  0  0
   -5.5107    0.9292  -17.6951 C   0  0  0  0  0  0  0  0  0  0  0  0
   -6.4577    0.0551  -17.3881 N   0  0  0  0  0  0  0  0  0  0  0  0
   -7.0052   -0.6421  -18.3903 C   0  0  0  0  0  0  0  0  0  0  0  0
  -12.4100    0.7658  -24.4617 H   0  0  0  0  0  0  0  0  0  0  0  0
  -10.0817    0.1483  -23.9864 H   0  0  0  0  0  0  0  0  0  0  0  0
  -11.4205   -2.8692  -21.2811 H   0  0  0  0  0  0  0  0  0  0  0  0
   -9.2517   -2.6591  -21.6470 H   0  0  0  0  0  0  0  0  0  0  0  0
   -7.2233   -1.5286  -24.9836 H   0  0  0  0  0  0  0  0  0  0  0  0
   -8.5776   -0.4479  -24.5100 H   0  0  0  0  0  0  0  0  0  0  0  0
   -7.1154   -0.5628  -23.4730 H   0  0  0  0  0  0  0  0  0  0  0  0
   -6.9518   -1.9875  -21.1177 H   0  0  0  0  0  0  0  0  0  0  0  0
   -5.6510    0.1506  -22.2112 H   0  0  0  0  0  0  0  0  0  0  0  0
   -3.9459    1.8245  -22.6622 H   0  0  0  0  0  0  0  0  0  0  0  0
   -2.9137    3.0892  -20.8254 H   0  0  0  0  0  0  0  0  0  0  0  0
   -3.5800    2.6903  -18.5180 H   0  0  0  0  0  0  0  0  0  0  0  0
   -5.0652    1.4935  -16.8892 H   0  0  0  0  0  0  0  0  0  0  0  0
   -7.7676   -1.3647  -18.1396 H   0  0  0  0  0  0  0  0  0  0  0  0
  1  2  1  0
  2  3  2  0
  2  7  1  0
  3  4  1  0
  3  5  1  0
  5  6  2  0
  5 25  1  0
  6  8  1  0
  6 26  1  0
  7  8  2  0
  7 27  1  0
  8  9  1  0
  9 10  1  0
  9 12  1  0
  9 28  1  1
 10 11  1  0
 11 29  1  6
 11 30  1  0
 11 31  1  0
 12 13  2  0
 12 14  1  0
 14 15  1  0
 14 32  1  0
 15 16  2  0
 15 24  1  0
 16 17  1  0
 16 21  1  0
 17 18  2  0
 17 33  1  0
 18 19  1  0
 18 34  1  0
 19 20  2  0
 19 35  1  0
 20 21  1  0
 20 36  1  0
 21 22  2  0
 22 23  1  0
 22 37  1  0
 23 24  2  0
 24 38  1  0
M  END
$$$$
