LIG(A-306)
     RDKit          3D

 45 48  0  0  1  0  0  0  0  0999 V2000
   14.1279   -1.7124   21.1725 Cl  0  0  0  0  0  0  0  0  0  0  0  0
   12.9547   -0.8902   22.1622 C   0  0  0  0  0  0  0  0  0  0  0  0
   11.6195   -1.2429   22.0595 C   0  0  0  0  0  0  0  0  0  0  0  0
   13.3691    0.1298   22.9883 C   0  0  0  0  0  0  0  0  0  0  0  0
   12.4303    0.7944   23.7557 C   0  0  0  0  0  0  0  0  0  0  0  0
   11.0791    0.4540   23.6960 C   0  0  0  0  0  0  0  0  0  0  0  0
   10.1324    1.0787   24.6987 C   0  0  1  0  0  0  0  0  0  0  0  0
    8.7130    0.8698   24.3763 N   0  0  0  0  0  0  0  0  0  0  0  0
    7.7158    1.7746   24.5946 C   0  0  0  0  0  0  0  0  0  0  0  0
    6.5476    1.4356   24.5269 O   0  0  0  0  0  0  0  0  0  0  0  0
    8.0924    3.2020   24.9017 C   0  0  1  0  0  0  0  0  0  0  0  0
   10.6657   -0.5514   22.8089 C   0  0  0  0  0  0  0  0  0  0  0  0
    9.1854   -0.8376   22.6398 C   0  0  1  0  0  0  0  0  0  0  0  0
    8.4313   -0.4971   23.9260 C   0  0  1  0  0  0  0  0  0  0  0  0
    8.5989   -0.0688   21.4539 C   0  0  0  0  0  0  0  0  0  0  0  0
    9.0886    0.9853   21.0488 O   0  0  0  0  0  0  0  0  0  0  0  0
    7.4984   -0.6271   20.9003 N   0  0  0  0  0  0  0  0  0  0  0  0
    6.7325   -0.1211   19.8306 C   0  0  0  0  0  0  0  0  0  0  0  0
    5.6224    0.7347   20.1211 C   0  0  0  0  0  0  0  0  0  0  0  0
    5.1644    1.0151   21.4346 C   0  0  0  0  0  0  0  0  0  0  0  0
    4.1264    1.8788   21.6480 C   0  0  0  0  0  0  0  0  0  0  0  0
    3.4832    2.4930   20.5808 C   0  0  0  0  0  0  0  0  0  0  0  0
    3.8801    2.2476   19.2961 C   0  0  0  0  0  0  0  0  0  0  0  0
    4.9603    1.3688   19.0307 C   0  0  0  0  0  0  0  0  0  0  0  0
    5.4342    1.1025   17.7252 C   0  0  0  0  0  0  0  0  0  0  0  0
    6.4542    0.3015   17.4514 N   0  0  0  0  0  0  0  0  0  0  0  0
    7.0713   -0.2910   18.4845 C   0  0  0  0  0  0  0  0  0  0  0  0
   11.3182   -2.0470   21.4046 H   0  0  0  0  0  0  0  0  0  0  0  0
   14.4118    0.4069   23.0363 H   0  0  0  0  0  0  0  0  0  0  0  0
   12.7488    1.5905   24.4124 H   0  0  0  0  0  0  0  0  0  0  0  0
   10.3329    0.6395   25.6870 H   0  0  0  0  0  0  0  0  0  0  0  0
   10.3259    2.1610   24.7323 H   0  0  0  0  0  0  0  0  0  0  0  0
    7.1801    3.8018   25.0360 H   0  0  0  0  0  0  0  0  0  0  0  0
    8.6905    3.2329   25.8244 H   0  0  0  0  0  0  0  0  0  0  0  0
    8.6819    3.6129   24.0688 H   0  0  0  0  0  0  0  0  0  0  0  0
    9.0620   -1.9132   22.4452 H   0  0  0  0  0  0  0  0  0  0  0  0
    8.7353   -1.2015   24.7142 H   0  0  0  0  0  0  0  0  0  0  0  0
    7.3512   -0.5961   23.7423 H   0  0  0  0  0  0  0  0  0  0  0  0
    7.1944   -1.4949   21.2934 H   0  0  0  0  0  0  0  0  0  0  0  0
    5.6428    0.5394   22.2778 H   0  0  0  0  0  0  0  0  0  0  0  0
    3.8027    2.0858   22.6574 H   0  0  0  0  0  0  0  0  0  0  0  0
    2.6628    3.1701   20.7677 H   0  0  0  0  0  0  0  0  0  0  0  0
    3.3665    2.7274   18.4762 H   0  0  0  0  0  0  0  0  0  0  0  0
    4.9328    1.5828   16.8979 H   0  0  0  0  0  0  0  0  0  0  0  0
    7.8953   -0.9517   18.2588 H   0  0  0  0  0  0  0  0  0  0  0  0
  1  2  1  0
  2  3  2  0
  2  4  1  0
  3 12  1  0
  3 28  1  0
  4  5  2  0
  4 29  1  0
  5  6  1  0
  5 30  1  0
  6  7  1  0
  6 12  2  0
  7  8  1  0
  7 31  1  1
  7 32  1  0
  8  9  1  0
  8 14  1  0
  9 10  2  0
  9 11  1  0
 11 33  1  1
 11 34  1  0
 11 35  1  0
 12 13  1  0
 13 14  1  0
 13 15  1  0
 13 36  1  6
 14 37  1  1
 14 38  1  0
 15 16  2  0
 15 17  1  0
 17 18  1  0
 17 39  1  0
 18 19  2  0
 18 27  1  0
 19 20  1  0
 19 24  1  0
 20 21  2  0
 20 40  1  0
 21 22  1  0
 21 41  1  0
 22 23  2  0
 22 42  1  0
 23 24  1  0
 23 43  1  0
 24 25  2  0
 25 26  1  0
 25 44  1  0
 26 27  2  0
 27 45  1  0
M  END
$$$$
