LIG(A-305)
     RDKit          3D

 33 34  0  0  0  0  0  0  0  0999 V2000
   13.8182   -1.8964   21.2021 Cl  0  0  0  0  0  0  0  0  0  0  0  0
   12.6512   -1.1074   22.2250 C   0  0  0  0  0  0  0  0  0  0  0  0
   13.0842   -0.1894   23.1590 C   0  0  0  0  0  0  0  0  0  0  0  0
   12.1432    0.4157   23.9780 C   0  0  0  0  0  0  0  0  0  0  0  0
   10.7952    0.1246   23.8260 C   0  0  0  0  0  0  0  0  0  0  0  0
   11.3162   -1.4074   22.0631 C   0  0  0  0  0  0  0  0  0  0  0  0
   10.3662   -0.7684   22.8501 C   0  0  0  0  0  0  0  0  0  0  0  0
    8.8942   -1.0014   22.5911 C   0  0  1  0  0  0  0  0  0  0  0  0
    8.4152   -0.1925   21.4011 C   0  0  0  0  0  0  0  0  0  0  0  0
    8.9422    0.8755   21.0830 O   0  0  0  0  0  0  0  0  0  0  0  0
    7.3232   -0.6895   20.7881 N   0  0  0  0  0  0  0  0  0  0  0  0
    6.6442   -0.0005   19.7501 C   0  0  0  0  0  0  0  0  0  0  0  0
    5.5652    0.8515   20.0371 C   0  0  0  0  0  0  0  0  0  0  0  0
    5.1062    1.0855   21.4561 C   0  0  1  0  0  0  0  0  0  0  0  0
    7.0832   -0.1566   18.4431 C   0  0  0  0  0  0  0  0  0  0  0  0
    6.5121    0.4704   17.4151 N   0  0  0  0  0  0  0  0  0  0  0  0
    5.4791    1.2784   17.6791 C   0  0  0  0  0  0  0  0  0  0  0  0
    4.9701    1.4944   18.9791 C   0  0  0  0  0  0  0  0  0  0  0  0
    3.8921    2.3574   19.1220 N   0  0  0  0  0  0  0  0  0  0  0  0
   14.1328    0.0528   23.2503 H   0  0  0  0  0  0  0  0  0  0  0  0
   12.4605    1.1157   24.7367 H   0  0  0  0  0  0  0  0  0  0  0  0
   10.0708    0.5969   24.4730 H   0  0  0  0  0  0  0  0  0  0  0  0
   11.0096   -2.1362   21.3274 H   0  0  0  0  0  0  0  0  0  0  0  0
    8.7296   -2.0701   22.3889 H   0  0  0  0  0  0  0  0  0  0  0  0
    8.3211   -0.7043   23.4818 H   0  0  0  0  0  0  0  0  0  0  0  0
    6.9765   -1.5819   21.0770 H   0  0  0  0  0  0  0  0  0  0  0  0
    5.9309    1.5169   22.0423 H   0  0  0  0  0  0  0  0  0  0  0  0
    4.2539    1.7810   21.4557 H   0  0  0  0  0  0  0  0  0  0  0  0
    4.7989    0.1291   21.9043 H   0  0  0  0  0  0  0  0  0  0  0  0
    7.9202   -0.8116   18.2515 H   0  0  0  0  0  0  0  0  0  0  0  0
    5.0091    1.7931   16.8542 H   0  0  0  0  0  0  0  0  0  0  0  0
    3.6282    2.7134   18.2255 H   0  0  0  0  0  0  0  0  0  0  0  0
    4.1496    3.1172   19.7192 H   0  0  0  0  0  0  0  0  0  0  0  0
  1  2  1  0
  2  3  2  0
  2  6  1  0
  3  4  1  0
  3 20  1  0
  4  5  2  0
  4 21  1  0
  5  7  1  0
  5 22  1  0
  6  7  2  0
  6 23  1  0
  7  8  1  0
  8  9  1  0
  8 24  1  6
  8 25  1  0
  9 10  2  0
  9 11  1  0
 11 12  1  0
 11 26  1  0
 12 13  2  0
 12 15  1  0
 13 14  1  0
 13 18  1  0
 14 27  1  1
 14 28  1  0
 14 29  1  0
 15 16  2  0
 15 30  1  0
 16 17  1  0
 17 18  2  0
 17 31  1  0
 18 19  1  0
 19 32  1  0
 19 33  1  0
M  END
$$$$
