LIG(A-306)
     RDKit          3D

 45 48  0  0  1  0  0  0  0  0999 V2000
  -14.7813   -2.3109  -20.6916 Cl  0  0  0  0  0  0  0  0  0  0  0  0
  -13.7756   -1.4694  -21.8395 C   0  0  0  0  0  0  0  0  0  0  0  0
  -14.3406   -0.5042  -22.6442 C   0  0  0  0  0  0  0  0  0  0  0  0
  -13.5221    0.2662  -23.4497 C   0  0  0  0  0  0  0  0  0  0  0  0
  -12.4135   -1.6998  -21.8309 C   0  0  0  0  0  0  0  0  0  0  0  0
  -11.5730   -0.9192  -22.6231 C   0  0  0  0  0  0  0  0  0  0  0  0
  -12.1527    0.0480  -23.4495 C   0  0  0  0  0  0  0  0  0  0  0  0
  -11.4398    0.7727  -24.3763 O   0  0  0  0  0  0  0  0  0  0  0  0
   -9.9991    0.7353  -24.2846 C   0  0  1  0  0  0  0  0  0  0  0  0
   -9.4678   -0.6272  -23.9161 C   0  0  1  0  0  0  0  0  0  0  0  0
  -10.0667   -1.0770  -22.5786 C   0  0  1  0  0  0  0  0  0  0  0  0
   -9.4557   -0.2925  -21.4149 C   0  0  0  0  0  0  0  0  0  0  0  0
   -9.8994    0.7957  -21.0507 O   0  0  0  0  0  0  0  0  0  0  0  0
   -8.3663   -0.8717  -20.8588 N   0  0  0  0  0  0  0  0  0  0  0  0
   -7.5110   -0.3488  -19.8681 C   0  0  0  0  0  0  0  0  0  0  0  0
   -7.6834   -0.5302  -18.4951 C   0  0  0  0  0  0  0  0  0  0  0  0
   -6.9279    0.0338  -17.5437 N   0  0  0  0  0  0  0  0  0  0  0  0
   -5.9379    0.8204  -17.9347 C   0  0  0  0  0  0  0  0  0  0  0  0
   -6.4371    0.4966  -20.2904 C   0  0  0  0  0  0  0  0  0  0  0  0
   -5.6309    1.1038  -19.2872 C   0  0  0  0  0  0  0  0  0  0  0  0
   -4.5832    1.9738  -19.6803 C   0  0  0  0  0  0  0  0  0  0  0  0
   -4.3370    2.2213  -20.9995 C   0  0  0  0  0  0  0  0  0  0  0  0
   -6.1521    0.7760  -21.6483 C   0  0  0  0  0  0  0  0  0  0  0  0
   -5.1173    1.6128  -21.9744 C   0  0  0  0  0  0  0  0  0  0  0  0
   -4.7215    1.8418  -23.6812 S   0  0  1  0  0  0  0  0  0  0  0  0
   -3.3734    1.3923  -23.8918 O   0  0  0  0  0  0  0  0  0  0  0  0
   -5.7646    1.2442  -24.4684 O   0  0  0  0  0  0  0  0  0  0  0  0
   -4.7748    3.5799  -23.9108 C   0  0  1  0  0  0  0  0  0  0  0  0
  -15.4097   -0.3513  -22.6460 H   0  0  0  0  0  0  0  0  0  0  0  0
  -13.9480    1.0355  -24.0768 H   0  0  0  0  0  0  0  0  0  0  0  0
  -12.0008   -2.4828  -21.2119 H   0  0  0  0  0  0  0  0  0  0  0  0
   -9.5782    1.0239  -25.2591 H   0  0  0  0  0  0  0  0  0  0  0  0
   -9.6777    1.4560  -23.5184 H   0  0  0  0  0  0  0  0  0  0  0  0
   -9.7413   -1.3494  -24.6994 H   0  0  0  0  0  0  0  0  0  0  0  0
   -8.3723   -0.5797  -23.8274 H   0  0  0  0  0  0  0  0  0  0  0  0
   -9.8322   -2.1423  -22.4371 H   0  0  0  0  0  0  0  0  0  0  0  0
   -8.1394   -1.7864  -21.1931 H   0  0  0  0  0  0  0  0  0  0  0  0
   -8.4882   -1.1753  -18.1750 H   0  0  0  0  0  0  0  0  0  0  0  0
   -5.3239    1.2760  -17.1718 H   0  0  0  0  0  0  0  0  0  0  0  0
   -3.9719    2.4469  -18.9261 H   0  0  0  0  0  0  0  0  0  0  0  0
   -3.5374    2.8888  -21.2849 H   0  0  0  0  0  0  0  0  0  0  0  0
   -6.7510    0.3292  -22.4281 H   0  0  0  0  0  0  0  0  0  0  0  0
   -4.5381    3.8194  -24.9580 H   0  0  0  0  0  0  0  0  0  0  0  0
   -5.7816    3.9510  -23.6685 H   0  0  0  0  0  0  0  0  0  0  0  0
   -4.0382    4.0597  -23.2496 H   0  0  0  0  0  0  0  0  0  0  0  0
  1  2  1  0
  2  3  2  0
  2  5  1  0
  3  4  1  0
  3 29  1  0
  4  7  2  0
  4 30  1  0
  5  6  2  0
  5 31  1  0
  6  7  1  0
  6 11  1  0
  7  8  1  0
  8  9  1  0
  9 10  1  0
  9 32  1  6
  9 33  1  0
 10 11  1  0
 10 34  1  6
 10 35  1  0
 11 12  1  0
 11 36  1  1
 12 13  2  0
 12 14  1  0
 14 15  1  0
 14 37  1  0
 15 16  2  0
 15 19  1  0
 16 17  1  0
 16 38  1  0
 17 18  2  0
 18 20  1  0
 18 39  1  0
 19 20  2  0
 19 23  1  0
 20 21  1  0
 21 22  2  0
 21 40  1  0
 22 24  1  0
 22 41  1  0
 23 24  2  0
 23 42  1  0
 25 24  1  1
 25 26  2  0
 25 27  2  0
 25 28  1  0
 28 43  1  6
 28 44  1  0
 28 45  1  0
M  END
$$$$
