LIG(A-305)
     RDKit          3D

 65 67  0  0  1  0  0  0  0  0999 V2000
    9.0278    1.2400   21.0334 O   0  0  0  0  0  0  0  0  0  0  0  0
    8.0219    1.0830   21.7186 C   0  0  0  0  0  0  0  0  0  0  0  0
    7.0258   -0.0430   21.3999 C   0  0  1  0  0  0  0  0  0  0  0  0
    6.3446    0.1900   20.0630 C   0  0  0  0  0  0  0  0  0  0  0  0
    5.1406    0.8770   19.9901 C   0  0  0  0  0  0  0  0  0  0  0  0
    4.6674    1.3200   18.7692 C   0  0  0  0  0  0  0  0  0  0  0  0
    5.4112    1.0409   17.6401 C   0  0  0  0  0  0  0  0  0  0  0  0
    6.5632    0.3608   17.6679 N   0  0  0  0  0  0  0  0  0  0  0  0
    6.9984   -0.0561   18.8629 C   0  0  0  0  0  0  0  0  0  0  0  0
    7.4229   -1.4460   21.7089 N   0  0  0  0  0  0  0  0  0  0  0  0
    8.6730   -1.6080   22.4037 C   0  0  0  0  0  0  0  0  0  0  0  0
    8.7022   -1.7739   23.7847 C   0  0  0  0  0  0  0  0  0  0  0  0
    9.9183   -1.9459   24.4245 C   0  0  0  0  0  0  0  0  0  0  0  0
   11.0852   -1.9300   23.6662 C   0  0  0  0  0  0  0  0  0  0  0  0
   12.4833   -2.0510   24.2930 C   0  0  1  0  0  0  0  0  0  0  0  0
   12.9734   -0.7080   24.8229 C   0  0  1  0  0  0  0  0  0  0  0  0
   12.5415   -3.1179   25.3881 C   0  0  1  0  0  0  0  0  0  0  0  0
   11.0720   -1.7700   22.3332 N   0  0  0  0  0  0  0  0  0  0  0  0
    9.8859   -1.6240   21.7214 C   0  0  0  0  0  0  0  0  0  0  0  0
    6.6468   -2.5180   21.3681 C   0  0  0  0  0  0  0  0  0  0  0  0
    5.5017   -2.3769   20.9812 O   0  0  0  0  0  0  0  0  0  0  0  0
    7.2637   -3.8980   21.4200 C   0  0  1  0  0  0  0  0  0  0  0  0
    6.9575   -4.7090   20.1651 C   0  0  1  0  0  0  0  0  0  0  0  0
    7.6231    1.9451   22.6776 N   0  0  0  0  0  0  0  0  0  0  0  0
    8.2572    3.2011   22.8985 C   0  0  0  0  0  0  0  0  0  0  0  0
    7.6541    4.3611   22.3955 C   0  0  0  0  0  0  0  0  0  0  0  0
    6.2960    4.3331   21.7418 C   0  0  1  0  0  0  0  0  0  0  0  0
    8.3202    5.5731   22.5753 C   0  0  0  0  0  0  0  0  0  0  0  0
    9.5173    5.6391   23.2641 C   0  0  0  0  0  0  0  0  0  0  0  0
   10.0944    4.4831   23.7651 C   0  0  0  0  0  0  0  0  0  0  0  0
    9.4813    3.2441   23.5883 C   0  0  0  0  0  0  0  0  0  0  0  0
   10.1334    1.9991   24.1522 C   0  0  1  0  0  0  0  0  0  0  0  0
    9.4456    1.4582   25.3964 C   0  0  1  0  0  0  0  0  0  0  0  0
    6.2153    0.1463   22.1190 H   0  0  0  0  0  0  0  0  0  0  0  0
    4.5726    1.0658   20.8890 H   0  0  0  0  0  0  0  0  0  0  0  0
    3.7404    1.8698   18.7004 H   0  0  0  0  0  0  0  0  0  0  0  0
    5.0446    1.3891   16.6858 H   0  0  0  0  0  0  0  0  0  0  0  0
    7.9183   -0.6209   18.8959 H   0  0  0  0  0  0  0  0  0  0  0  0
    7.7839   -1.7686   24.3531 H   0  0  0  0  0  0  0  0  0  0  0  0
    9.9605   -2.0899   25.4940 H   0  0  0  0  0  0  0  0  0  0  0  0
   13.1734   -2.3618   23.4948 H   0  0  0  0  0  0  0  0  0  0  0  0
   13.9739   -0.8301   25.2634 H   0  0  0  0  0  0  0  0  0  0  0  0
   13.0228    0.0162   23.9963 H   0  0  0  0  0  0  0  0  0  0  0  0
   12.2770   -0.3407   25.5911 H   0  0  0  0  0  0  0  0  0  0  0  0
   13.5595   -3.1640   25.8021 H   0  0  0  0  0  0  0  0  0  0  0  0
   11.8316   -2.8611   26.1882 H   0  0  0  0  0  0  0  0  0  0  0  0
   12.2748   -4.0960   24.9614 H   0  0  0  0  0  0  0  0  0  0  0  0
    9.8723   -1.5137   20.6471 H   0  0  0  0  0  0  0  0  0  0  0  0
    8.3545   -3.7957   21.5192 H   0  0  0  0  0  0  0  0  0  0  0  0
    6.8645   -4.4326   22.2945 H   0  0  0  0  0  0  0  0  0  0  0  0
    7.4243   -5.7017   20.2466 H   0  0  0  0  0  0  0  0  0  0  0  0
    5.8686   -4.8235   20.0593 H   0  0  0  0  0  0  0  0  0  0  0  0
    7.3586   -4.1866   19.2841 H   0  0  0  0  0  0  0  0  0  0  0  0
    6.8493    1.6909   23.2579 H   0  0  0  0  0  0  0  0  0  0  0  0
    5.5508    3.9593   22.4593 H   0  0  0  0  0  0  0  0  0  0  0  0
    6.0211    5.3497   21.4239 H   0  0  0  0  0  0  0  0  0  0  0  0
    6.3251    3.6699   20.8646 H   0  0  0  0  0  0  0  0  0  0  0  0
    7.8927    6.4776   22.1687 H   0  0  0  0  0  0  0  0  0  0  0  0
   10.0030    6.5924   23.4118 H   0  0  0  0  0  0  0  0  0  0  0  0
   11.0311    4.5431   24.2993 H   0  0  0  0  0  0  0  0  0  0  0  0
   10.1163    1.2173   23.3785 H   0  0  0  0  0  0  0  0  0  0  0  0
   11.1759    2.2389   24.4083 H   0  0  0  0  0  0  0  0  0  0  0  0
    9.9732    0.5585   25.7458 H   0  0  0  0  0  0  0  0  0  0  0  0
    9.4626    2.2232   26.1865 H   0  0  0  0  0  0  0  0  0  0  0  0
    8.4030    1.2018   25.1566 H   0  0  0  0  0  0  0  0  0  0  0  0
  1  2  2  0
  2  3  1  0
  2 24  1  0
  3  4  1  0
  3 10  1  0
  3 34  1  1
  4  5  2  0
  4  9  1  0
  5  6  1  0
  5 35  1  0
  6  7  2  0
  6 36  1  0
  7  8  1  0
  7 37  1  0
  8  9  2  0
  9 38  1  0
 10 11  1  0
 10 20  1  0
 11 12  2  0
 11 19  1  0
 12 13  1  0
 12 39  1  0
 13 14  2  0
 13 40  1  0
 14 15  1  0
 14 18  1  0
 15 16  1  0
 15 17  1  0
 15 41  1  6
 16 42  1  1
 16 43  1  0
 16 44  1  0
 17 45  1  1
 17 46  1  0
 17 47  1  0
 18 19  2  0
 19 48  1  0
 20 21  2  0
 20 22  1  0
 22 23  1  0
 22 49  1  1
 22 50  1  0
 23 51  1  1
 23 52  1  0
 23 53  1  0
 24 25  1  0
 24 54  1  0
 25 26  2  0
 25 31  1  0
 26 27  1  0
 26 28  1  0
 27 55  1  1
 27 56  1  0
 27 57  1  0
 28 29  2  0
 28 58  1  0
 29 30  1  0
 29 59  1  0
 30 31  2  0
 30 60  1  0
 31 32  1  0
 32 33  1  0
 32 61  1  6
 32 62  1  0
 33 63  1  1
 33 64  1  0
 33 65  1  0
M  END
$$$$
