LIG(A-305)
     RDKit          3D

 32 33  0  0  0  0  0  0  0  0999 V2000
    9.3737    0.6173   21.0331 O   0  0  0  0  0  0  0  0  0  0  0  0
    8.7727   -0.4037   21.3622 C   0  0  0  0  0  0  0  0  0  0  0  0
    7.5387   -0.7277   20.9273 N   0  0  0  0  0  0  0  0  0  0  0  0
    6.8297   -0.0558   19.9113 C   0  0  0  0  0  0  0  0  0  0  0  0
    7.2576   -0.0929   18.5833 C   0  0  0  0  0  0  0  0  0  0  0  0
    6.6206    0.5340   17.5902 N   0  0  0  0  0  0  0  0  0  0  0  0
    5.5156    1.2201   17.9032 C   0  0  0  0  0  0  0  0  0  0  0  0
    5.0226    1.3262   19.1882 C   0  0  0  0  0  0  0  0  0  0  0  0
    5.6787    0.6862   20.2313 C   0  0  0  0  0  0  0  0  0  0  0  0
    5.1927    0.8364   21.6503 C   0  0  1  0  0  0  0  0  0  0  0  0
    9.3748   -1.4146   22.3163 C   0  0  1  0  0  0  0  0  0  0  0  0
   10.7328   -0.9606   22.7952 C   0  0  0  0  0  0  0  0  0  0  0  0
   10.8448   -0.1845   23.9411 C   0  0  0  0  0  0  0  0  0  0  0  0
   12.0849    0.2625   24.3670 C   0  0  0  0  0  0  0  0  0  0  0  0
   12.1599    0.9806   25.5200 O   0  0  0  0  0  0  0  0  0  0  0  0
   13.2288   -0.0426   23.6430 C   0  0  0  0  0  0  0  0  0  0  0  0
   13.1208   -0.8236   22.5041 C   0  0  0  0  0  0  0  0  0  0  0  0
   11.8827   -1.2847   22.0901 C   0  0  0  0  0  0  0  0  0  0  0  0
    7.0895   -1.5088   21.3611 H   0  0  0  0  0  0  0  0  0  0  0  0
    8.1480   -0.6564   18.3467 H   0  0  0  0  0  0  0  0  0  0  0  0
    4.9804    1.7176   17.1079 H   0  0  0  0  0  0  0  0  0  0  0  0
    4.1310    1.9042   19.3813 H   0  0  0  0  0  0  0  0  0  0  0  0
    5.9725    1.3210   22.2561 H   0  0  0  0  0  0  0  0  0  0  0  0
    4.2824    1.4537   21.6626 H   0  0  0  0  0  0  0  0  0  0  0  0
    4.9682   -0.1563   22.0678 H   0  0  0  0  0  0  0  0  0  0  0  0
    8.7082   -1.5332   23.1832 H   0  0  0  0  0  0  0  0  0  0  0  0
    9.4793   -2.3800   21.7993 H   0  0  0  0  0  0  0  0  0  0  0  0
    9.9596    0.0722   24.5039 H   0  0  0  0  0  0  0  0  0  0  0  0
   11.6035    0.5818   26.1787 H   0  0  0  0  0  0  0  0  0  0  0  0
   14.1924    0.3249   23.9638 H   0  0  0  0  0  0  0  0  0  0  0  0
   14.0053   -1.0738   21.9371 H   0  0  0  0  0  0  0  0  0  0  0  0
   11.8114   -1.9038   21.2081 H   0  0  0  0  0  0  0  0  0  0  0  0
  1  2  2  0
  2  3  1  0
  2 11  1  0
  3  4  1  0
  3 19  1  0
  4  5  2  0
  4  9  1  0
  5  6  1  0
  5 20  1  0
  6  7  2  0
  7  8  1  0
  7 21  1  0
  8  9  2  0
  8 22  1  0
  9 10  1  0
 10 23  1  1
 10 24  1  0
 10 25  1  0
 11 12  1  0
 11 26  1  1
 11 27  1  0
 12 13  2  0
 12 18  1  0
 13 14  1  0
 13 28  1  0
 14 15  1  0
 14 16  2  0
 15 29  1  0
 16 17  1  0
 16 30  1  0
 17 18  2  0
 17 31  1  0
 18 32  1  0
M  END
$$$$
