LIG(A-305)
     RDKit          3D

 50 53  0  0  0  0  0  0  0  0999 V2000
    9.5157    0.9603   21.1892 O   0  0  0  0  0  0  0  0  0  0  0  0
    9.1277   -0.0537   21.7603 C   0  0  0  0  0  0  0  0  0  0  0  0
    8.1295   -0.9986   21.0924 C   0  0  1  0  0  0  0  0  0  0  0  0
    7.3915   -0.3326   20.0435 N   0  0  0  0  0  0  0  0  0  0  0  0
    6.2356    0.3844   20.1175 C   0  0  0  0  0  0  0  0  0  0  0  0
    5.4277    0.7956   21.1686 C   0  0  0  0  0  0  0  0  0  0  0  0
    4.3297    1.5926   20.8637 C   0  0  0  0  0  0  0  0  0  0  0  0
    4.0486    1.9506   19.5467 C   0  0  0  0  0  0  0  0  0  0  0  0
    4.8615    1.5254   18.5016 C   0  0  0  0  0  0  0  0  0  0  0  0
    5.9664    0.7334   18.7985 C   0  0  0  0  0  0  0  0  0  0  0  0
    6.9583    0.2182   17.9965 N   0  0  0  0  0  0  0  0  0  0  0  0
    7.8104   -0.4108   18.7574 N   0  0  0  0  0  0  0  0  0  0  0  0
    9.5528   -0.4016   23.0103 N   0  0  0  0  0  0  0  0  0  0  0  0
   10.6009    0.4014   23.6291 C   0  0  1  0  0  0  0  0  0  0  0  0
   11.8649   -0.3867   23.8410 C   0  0  0  0  0  0  0  0  0  0  0  0
   12.5947   -0.8439   22.7840 C   0  0  0  0  0  0  0  0  0  0  0  0
   13.8617   -1.8589   23.2779 S   0  0  0  0  0  0  0  0  0  0  0  0
   13.4619   -1.6978   24.9470 C   0  0  0  0  0  0  0  0  0  0  0  0
   12.3730   -0.8687   25.0840 C   0  0  0  0  0  0  0  0  0  0  0  0
    9.0518   -1.5265   23.7344 C   0  0  0  0  0  0  0  0  0  0  0  0
    9.6737   -2.7686   23.6274 C   0  0  0  0  0  0  0  0  0  0  0  0
    9.2787   -3.8175   24.4375 C   0  0  0  0  0  0  0  0  0  0  0  0
    7.9989   -1.3644   24.6375 C   0  0  0  0  0  0  0  0  0  0  0  0
    7.6039   -2.4173   25.4436 C   0  0  0  0  0  0  0  0  0  0  0  0
    8.2548   -3.6454   25.3646 C   0  0  0  0  0  0  0  0  0  0  0  0
    8.0098   -4.6763   26.3007 N   0  0  0  0  0  0  0  0  0  0  0  0
    6.8789   -4.8881   27.0478 C   0  0  0  0  0  0  0  0  0  0  0  0
    5.7839   -4.3901   26.7949 O   0  0  0  0  0  0  0  0  0  0  0  0
    7.0679   -5.7051   28.0969 N   0  0  0  0  0  0  0  0  0  0  0  0
    5.9970   -6.0399   29.0200 C   0  0  1  0  0  0  0  0  0  0  0  0
    8.6767   -1.8493   20.6600 H   0  0  0  0  0  0  0  0  0  0  0  0
    7.4217   -1.3650   21.8505 H   0  0  0  0  0  0  0  0  0  0  0  0
    5.6440    0.5069   22.1866 H   0  0  0  0  0  0  0  0  0  0  0  0
    3.6859    1.9390   21.6586 H   0  0  0  0  0  0  0  0  0  0  0  0
    3.1873    2.5668   19.3346 H   0  0  0  0  0  0  0  0  0  0  0  0
    4.6401    1.8039   17.4819 H   0  0  0  0  0  0  0  0  0  0  0  0
   10.8225    1.2592   22.9771 H   0  0  0  0  0  0  0  0  0  0  0  0
   10.2414    0.7644   24.6032 H   0  0  0  0  0  0  0  0  0  0  0  0
   12.3906   -0.5900   21.7543 H   0  0  0  0  0  0  0  0  0  0  0  0
   13.9866   -2.1753   25.7612 H   0  0  0  0  0  0  0  0  0  0  0  0
   11.9440   -0.6077   26.0402 H   0  0  0  0  0  0  0  0  0  0  0  0
   10.4672   -2.9128   22.9091 H   0  0  0  0  0  0  0  0  0  0  0  0
    9.7678   -4.7764   24.3502 H   0  0  0  0  0  0  0  0  0  0  0  0
    7.4912   -0.4137   24.7069 H   0  0  0  0  0  0  0  0  0  0  0  0
    6.7868   -2.2858   26.1374 H   0  0  0  0  0  0  0  0  0  0  0  0
    8.7528   -5.3320   26.4348 H   0  0  0  0  0  0  0  0  0  0  0  0
    7.9759   -6.0959   28.2477 H   0  0  0  0  0  0  0  0  0  0  0  0
    6.3799   -6.7194   29.7957 H   0  0  0  0  0  0  0  0  0  0  0  0
    5.6190   -5.1210   29.4919 H   0  0  0  0  0  0  0  0  0  0  0  0
    5.1808   -6.5328   28.4713 H   0  0  0  0  0  0  0  0  0  0  0  0
  1  2  2  0
  2  3  1  0
  2 13  1  0
  3  4  1  0
  3 31  1  6
  3 32  1  0
  4  5  1  0
  4 12  1  0
  5  6  2  0
  5 10  1  0
  6  7  1  0
  6 33  1  0
  7  8  2  0
  7 34  1  0
  8  9  1  0
  8 35  1  0
  9 10  2  0
  9 36  1  0
 10 11  1  0
 11 12  2  0
 13 14  1  0
 13 20  1  0
 14 15  1  0
 14 37  1  6
 14 38  1  0
 15 16  2  0
 15 19  1  0
 16 17  1  0
 16 39  1  0
 17 18  1  0
 18 19  2  0
 18 40  1  0
 19 41  1  0
 20 21  2  0
 20 23  1  0
 21 22  1  0
 21 42  1  0
 22 25  2  0
 22 43  1  0
 23 24  2  0
 23 44  1  0
 24 25  1  0
 24 45  1  0
 25 26  1  0
 26 27  1  0
 26 46  1  0
 27 28  2  0
 27 29  1  0
 29 30  1  0
 29 47  1  0
 30 48  1  1
 30 49  1  0
 30 50  1  0
M  END
$$$$
