LIG(A-305)
     RDKit          3D

 35 37  0  0  1  0  0  0  0  0999 V2000
    9.9000    0.4492   21.0391 O   0  0  0  0  0  0  0  0  0  0  0  0
    9.0560    0.1342   21.8622 C   0  0  0  0  0  0  0  0  0  0  0  0
    9.4251   -0.4248   23.2182 C   0  0  2  0  0  0  0  0  0  0  0  0
   10.9171   -0.8688   23.4101 C   0  0  1  0  0  0  0  0  0  0  0  0
   11.9821   -1.1548   22.3100 C   0  0  1  0  0  0  0  0  0  0  0  0
   12.8261    0.0062   22.8339 C   0  0  1  0  0  0  0  0  0  0  0  0
   11.9612    0.0552   24.0950 C   0  0  2  0  0  0  0  0  0  0  0  0
   10.3892   -2.1198   24.1551 C   0  0  1  0  0  0  0  0  0  0  0  0
    9.0051   -1.8738   23.5272 C   0  0  2  0  0  0  0  0  0  0  0  0
    7.7370    0.3612   21.6933 N   0  0  0  0  0  0  0  0  0  0  0  0
    6.9790    0.4452   20.4973 C   0  0  0  0  0  0  0  0  0  0  0  0
    5.6280    0.8393   20.5794 C   0  0  0  0  0  0  0  0  0  0  0  0
    4.9371    1.0503   21.9024 C   0  0  1  0  0  0  0  0  0  0  0  0
    7.5199    0.1872   19.2343 C   0  0  0  0  0  0  0  0  0  0  0  0
    6.8488    0.3622   18.0913 N   0  0  0  0  0  0  0  0  0  0  0  0
    5.5878    0.7952   18.1824 C   0  0  0  0  0  0  0  0  0  0  0  0
    4.9449    1.0303   19.3814 C   0  0  0  0  0  0  0  0  0  0  0  0
    9.1179    0.2541   24.0274 H   0  0  0  0  0  0  0  0  0  0  0  0
   12.4663   -2.1386   22.3975 H   0  0  0  0  0  0  0  0  0  0  0  0
   11.6155   -1.0167   21.2821 H   0  0  0  0  0  0  0  0  0  0  0  0
   13.8793   -0.2509   23.0201 H   0  0  0  0  0  0  0  0  0  0  0  0
   12.7741    0.9152   22.2166 H   0  0  0  0  0  0  0  0  0  0  0  0
   12.4367   -0.3851   24.9838 H   0  0  0  0  0  0  0  0  0  0  0  0
   11.5814    1.0578   24.3411 H   0  0  0  0  0  0  0  0  0  0  0  0
   10.8643   -3.0636   23.8494 H   0  0  0  0  0  0  0  0  0  0  0  0
   10.4106   -2.0368   25.2518 H   0  0  0  0  0  0  0  0  0  0  0  0
    8.7983   -2.4843   22.6358 H   0  0  0  0  0  0  0  0  0  0  0  0
    8.1665   -1.9603   24.2337 H   0  0  0  0  0  0  0  0  0  0  0  0
    7.2160    0.4895   22.5371 H   0  0  0  0  0  0  0  0  0  0  0  0
    5.4572    1.8383   22.4667 H   0  0  0  0  0  0  0  0  0  0  0  0
    3.8940    1.3526   21.7271 H   0  0  0  0  0  0  0  0  0  0  0  0
    4.9553    0.1137   22.4790 H   0  0  0  0  0  0  0  0  0  0  0  0
    8.5364   -0.1735   19.1788 H   0  0  0  0  0  0  0  0  0  0  0  0
    5.0415    0.9710   17.2675 H   0  0  0  0  0  0  0  0  0  0  0  0
    3.9167    1.3608   19.3900 H   0  0  0  0  0  0  0  0  0  0  0  0
  1  2  2  0
  2  3  1  0
  2 10  1  0
  4  3  1  6
  3  9  1  0
  3 18  1  1
  4  5  1  0
  4  7  1  0
  4  8  1  0
  5  6  1  0
  5 19  1  6
  5 20  1  0
  6  7  1  0
  6 21  1  1
  6 22  1  0
  7 23  1  1
  7 24  1  0
  8  9  1  0
  8 25  1  1
  8 26  1  0
  9 27  1  6
  9 28  1  0
 10 11  1  0
 10 29  1  0
 11 12  2  0
 11 14  1  0
 12 13  1  0
 12 17  1  0
 13 30  1  1
 13 31  1  0
 13 32  1  0
 14 15  2  0
 14 33  1  0
 15 16  1  0
 16 17  2  0
 16 34  1  0
 17 35  1  0
M  END
$$$$
