LIG(A-305)
     RDKit          3D

 32 33  0  0  0  0  0  0  0  0999 V2000
    7.1226   -2.3773   20.8144 N   0  0  0  0  0  0  0  0  0  0  0  0
    7.3923   -2.4853   18.3584 C   0  0  1  0  0  0  0  0  0  0  0  0
    5.8884   -3.8233   19.6265 O   0  0  0  0  0  0  0  0  0  0  0  0
    6.7384   -2.9403   19.6504 C   0  0  0  0  0  0  0  0  0  0  0  0
    8.0226   -1.2393   20.9603 C   0  0  1  0  0  0  0  0  0  0  0  0
    6.7047   -2.8763   22.1214 C   0  0  1  0  0  0  0  0  0  0  0  0
    7.9168   -3.2694   22.9343 C   0  0  1  0  0  0  0  0  0  0  0  0
   10.0219   -2.5604   23.8631 C   0  0  1  0  0  0  0  0  0  0  0  0
   11.1039   -1.5114   23.8610 C   0  0  0  0  0  0  0  0  0  0  0  0
   12.2048   -1.4404   22.9549 C   0  0  0  0  0  0  0  0  0  0  0  0
   12.9158   -0.2964   23.0499 C   0  0  0  0  0  0  0  0  0  0  0  0
   11.1400   -0.4284   24.7330 C   0  0  0  0  0  0  0  0  0  0  0  0
    9.2327   -1.6524   21.7632 C   0  0  1  0  0  0  0  0  0  0  0  0
    8.8478   -2.1474   23.0912 N   0  0  1  0  0  0  0  0  0  0  0  0
   12.2829    0.7236   24.2380 S   0  0  0  0  0  0  0  0  0  0  0  0
    6.9779   -3.0579   17.5156 H   0  0  0  0  0  0  0  0  0  0  0  0
    7.1955   -1.4138   18.2055 H   0  0  0  0  0  0  0  0  0  0  0  0
    8.4777   -2.6539   18.4176 H   0  0  0  0  0  0  0  0  0  0  0  0
    8.3428   -0.8955   19.9657 H   0  0  0  0  0  0  0  0  0  0  0  0
    7.4995   -0.4228   21.4797 H   0  0  0  0  0  0  0  0  0  0  0  0
    6.1496   -2.0887   22.6520 H   0  0  0  0  0  0  0  0  0  0  0  0
    6.0561   -3.7544   21.9862 H   0  0  0  0  0  0  0  0  0  0  0  0
    7.5868   -3.6015   23.9297 H   0  0  0  0  0  0  0  0  0  0  0  0
    8.4354   -4.0953   22.4255 H   0  0  0  0  0  0  0  0  0  0  0  0
   10.4251   -3.4858   23.4261 H   0  0  0  0  0  0  0  0  0  0  0  0
    9.7140   -2.7493   24.9021 H   0  0  0  0  0  0  0  0  0  0  0  0
   12.4466   -2.2290   22.2578 H   0  0  0  0  0  0  0  0  0  0  0  0
   13.7787   -0.0635   22.4437 H   0  0  0  0  0  0  0  0  0  0  0  0
   10.5202   -0.3331   25.6123 H   0  0  0  0  0  0  0  0  0  0  0  0
    9.7654   -2.4495   21.2241 H   0  0  0  0  0  0  0  0  0  0  0  0
    9.8968   -0.7837   21.8832 H   0  0  0  0  0  0  0  0  0  0  0  0
    8.3826   -1.4120   23.5840 H   0  0  0  0  0  0  0  0  0  0  0  0
  1  4  1  0
  1  5  1  0
  1  6  1  0
  2  4  1  0
  2 16  1  6
  2 17  1  0
  2 18  1  0
  3  4  2  0
  5 13  1  0
  5 19  1  6
  5 20  1  0
  6  7  1  0
  6 21  1  1
  6 22  1  0
  7 14  1  0
  7 23  1  1
  7 24  1  0
  8  9  1  0
  8 14  1  0
  8 25  1  6
  8 26  1  0
  9 10  1  0
  9 12  2  0
 10 11  2  0
 10 27  1  0
 11 15  1  0
 11 28  1  0
 12 15  1  0
 12 29  1  0
 13 14  1  0
 13 30  1  6
 13 31  1  0
 14 32  1  1
M  CHG  1  14   1
M  END
$$$$
