LIG(A-305)
     RDKit          3D

 28 29  0  0  0  0  0  0  0  0999 V2000
   24.9012  -14.7798   24.8181 C   0  0  1  0  0  0  0  0  0  0  0  0
   24.0272  -15.1157   26.0312 C   0  0  0  0  0  0  0  0  0  0  0  0
   23.5438  -17.4406   25.1612 C   0  0  0  0  0  0  0  0  0  0  0  0
   24.7967  -18.0268   25.1461 C   0  0  0  0  0  0  0  0  0  0  0  0
   25.0685  -19.0599   24.2771 C   0  0  0  0  0  0  0  0  0  0  0  0
   24.0984  -19.5027   23.3942 C   0  0  0  0  0  0  0  0  0  0  0  0
   24.2910  -20.7078   21.2132 C   0  0  0  0  0  0  0  0  0  0  0  0
   24.7800  -20.1318   19.0561 C   0  0  0  0  0  0  0  0  0  0  0  0
   23.9448  -21.1497   18.5922 C   0  0  0  0  0  0  0  0  0  0  0  0
   23.3027  -21.9526   19.5343 C   0  0  0  0  0  0  0  0  0  0  0  0
   22.8265  -18.9425   23.4273 C   0  0  0  0  0  0  0  0  0  0  0  0
   22.5447  -17.8995   24.3083 C   0  0  0  0  0  0  0  0  0  0  0  0
   23.3600  -16.3936   26.1432 N   0  0  0  0  0  0  0  0  0  0  0  0
   24.9381  -19.9349   20.3531 N   0  0  0  0  0  0  0  0  0  0  0  0
   23.5179  -21.7066   20.8092 N   0  0  0  0  0  0  0  0  0  0  0  0
   23.8564  -14.3157   26.8872 O   0  0  0  0  0  0  0  0  0  0  0  0
   24.4802  -20.5828   22.5962 O   0  0  0  0  0  0  0  0  0  0  0  0
   25.2845  -13.7533   24.9147 H   0  0  0  0  0  0  0  0  0  0  0  0
   25.7454  -15.4833   24.7687 H   0  0  0  0  0  0  0  0  0  0  0  0
   24.3010  -14.8622   23.9000 H   0  0  0  0  0  0  0  0  0  0  0  0
   25.5644  -17.6730   25.8183 H   0  0  0  0  0  0  0  0  0  0  0  0
   26.0424  -19.5265   24.2844 H   0  0  0  0  0  0  0  0  0  0  0  0
   25.3002  -19.5012   18.3504 H   0  0  0  0  0  0  0  0  0  0  0  0
   23.8001  -21.3107   17.5341 H   0  0  0  0  0  0  0  0  0  0  0  0
   22.6473  -22.7538   19.2263 H   0  0  0  0  0  0  0  0  0  0  0  0
   22.0556  -19.3159   22.7695 H   0  0  0  0  0  0  0  0  0  0  0  0
   21.5617  -17.4526   24.3286 H   0  0  0  0  0  0  0  0  0  0  0  0
   22.7542  -16.5586   26.9216 H   0  0  0  0  0  0  0  0  0  0  0  0
  1  2  1  0
  1 18  1  1
  1 19  1  0
  1 20  1  0
  2 13  1  0
  2 16  2  0
  3  4  2  0
  3 12  1  0
  3 13  1  0
  4  5  1  0
  4 21  1  0
  5  6  2  0
  5 22  1  0
  6 11  1  0
  6 17  1  0
  7 14  2  0
  7 15  1  0
  7 17  1  0
  8  9  2  0
  8 14  1  0
  8 23  1  0
  9 10  1  0
  9 24  1  0
 10 15  2  0
 10 25  1  0
 11 12  2  0
 11 26  1  0
 12 27  1  0
 13 28  1  0
M  END
$$$$
