LIG(A-306)
     RDKit          3D

 41 43  0  0  1  0  0  0  0  0999 V2000
   14.5813   -1.3670   20.8261 Cl  0  0  0  0  0  0  0  0  0  0  0  0
   13.5546   -0.6127   22.0173 C   0  0  0  0  0  0  0  0  0  0  0  0
   14.0511    0.4286   22.7723 C   0  0  0  0  0  0  0  0  0  0  0  0
   13.2187    1.0646   23.6772 C   0  0  0  0  0  0  0  0  0  0  0  0
   12.2447   -1.0322   22.1343 C   0  0  0  0  0  0  0  0  0  0  0  0
   11.3792   -0.3736   23.0081 C   0  0  0  0  0  0  0  0  0  0  0  0
   11.8977    0.6541   23.8032 C   0  0  0  0  0  0  0  0  0  0  0  0
   11.1864    1.2351   24.8274 O   0  0  0  0  0  0  0  0  0  0  0  0
    9.7446    1.1658   24.7211 C   0  0  1  0  0  0  0  0  0  0  0  0
    9.2660   -0.2248   24.3774 C   0  0  1  0  0  0  0  0  0  0  0  0
    9.8970   -0.6930   23.0534 C   0  0  1  0  0  0  0  0  0  0  0  0
    9.1820   -0.0116   21.8850 C   0  0  0  0  0  0  0  0  0  0  0  0
    9.5072    1.1066   21.4785 O   0  0  0  0  0  0  0  0  0  0  0  0
    8.1257   -0.7046   21.3918 N   0  0  0  0  0  0  0  0  0  0  0  0
    7.2084   -0.2464   20.4038 C   0  0  0  0  0  0  0  0  0  0  0  0
    7.4695   -0.3859   19.0417 C   0  0  0  0  0  0  0  0  0  0  0  0
    6.6731    0.1068   18.0825 N   0  0  0  0  0  0  0  0  0  0  0  0
    5.5695    0.7575   18.4654 C   0  0  0  0  0  0  0  0  0  0  0  0
    6.0378    0.4163   20.8096 C   0  0  0  0  0  0  0  0  0  0  0  0
    5.6747    0.5431   22.2719 C   0  0  1  0  0  0  0  0  0  0  0  0
    5.2033    0.9365   19.8063 C   0  0  0  0  0  0  0  0  0  0  0  0
    4.0855    1.6532   20.1697 N   0  0  0  0  0  0  0  0  0  0  0  0
    3.2147    2.3137   19.2254 C   0  0  1  0  0  0  0  0  0  0  0  0
   15.0777    0.7445   22.6590 H   0  0  0  0  0  0  0  0  0  0  0  0
   13.5946    1.8762   24.2824 H   0  0  0  0  0  0  0  0  0  0  0  0
   11.8905   -1.8689   21.5504 H   0  0  0  0  0  0  0  0  0  0  0  0
    9.3033    1.4650   25.6832 H   0  0  0  0  0  0  0  0  0  0  0  0
    9.4133    1.8594   23.9342 H   0  0  0  0  0  0  0  0  0  0  0  0
    9.5542   -0.9173   25.1820 H   0  0  0  0  0  0  0  0  0  0  0  0
    8.1708   -0.2170   24.2752 H   0  0  0  0  0  0  0  0  0  0  0  0
    9.7630   -1.7813   22.9649 H   0  0  0  0  0  0  0  0  0  0  0  0
    7.9771   -1.6238   21.7562 H   0  0  0  0  0  0  0  0  0  0  0  0
    8.3603   -0.9188   18.7434 H   0  0  0  0  0  0  0  0  0  0  0  0
    4.9261    1.1670   17.7006 H   0  0  0  0  0  0  0  0  0  0  0  0
    6.4460    0.0546   22.8854 H   0  0  0  0  0  0  0  0  0  0  0  0
    5.6107    1.6074   22.5426 H   0  0  0  0  0  0  0  0  0  0  0  0
    4.7030    0.0599   22.4515 H   0  0  0  0  0  0  0  0  0  0  0  0
    3.6165    1.2965   20.9776 H   0  0  0  0  0  0  0  0  0  0  0  0
    2.3983    2.8141   19.7667 H   0  0  0  0  0  0  0  0  0  0  0  0
    3.7891    3.0600   18.6570 H   0  0  0  0  0  0  0  0  0  0  0  0
    2.7935    1.5700   18.5329 H   0  0  0  0  0  0  0  0  0  0  0  0
  1  2  1  0
  2  3  2  0
  2  5  1  0
  3  4  1  0
  3 24  1  0
  4  7  2  0
  4 25  1  0
  5  6  2  0
  5 26  1  0
  6  7  1  0
  6 11  1  0
  7  8  1  0
  8  9  1  0
  9 10  1  0
  9 27  1  1
  9 28  1  0
 10 11  1  0
 10 29  1  1
 10 30  1  0
 11 12  1  0
 11 31  1  6
 12 13  2  0
 12 14  1  0
 14 15  1  0
 14 32  1  0
 15 16  2  0
 15 19  1  0
 16 17  1  0
 16 33  1  0
 17 18  2  0
 18 21  1  0
 18 34  1  0
 19 20  1  0
 19 21  2  0
 20 35  1  1
 20 36  1  0
 20 37  1  0
 21 22  1  0
 22 23  1  0
 22 38  1  0
 23 39  1  1
 23 40  1  0
 23 41  1  0
M  END
$$$$
