LIG(A-306)
     RDKit          3D

 40 43  0  0  1  0  0  0  0  0999 V2000
    9.2274    1.0832   21.0074 O   0  0  0  0  0  0  0  0  0  0  0  0
    8.7006    0.0924   21.4971 C   0  0  0  0  0  0  0  0  0  0  0  0
    9.3199   -0.6011   22.7417 C   0  0  1  0  0  0  0  0  0  0  0  0
   10.8206   -0.4668   22.6935 C   0  0  0  0  0  0  0  0  0  0  0  0
   11.7744   -1.1592   21.9591 C   0  0  0  0  0  0  0  0  0  0  0  0
   13.0944   -0.7537   22.0475 C   0  0  0  0  0  0  0  0  0  0  0  0
   14.2684   -1.4871   20.9884 Cl  0  0  0  0  0  0  0  0  0  0  0  0
   13.4928    0.2794   22.8836 C   0  0  0  0  0  0  0  0  0  0  0  0
   12.5480    0.9439   23.6481 C   0  0  0  0  0  0  0  0  0  0  0  0
   11.2129    0.5662   23.5355 C   0  0  0  0  0  0  0  0  0  0  0  0
   10.1085    1.1029   24.1916 N   0  0  0  0  0  0  0  0  0  0  0  0
    8.9947    0.1795   24.0358 C   0  0  2  0  0  0  0  0  0  0  0  0
    8.9053   -2.0815   22.8659 C   0  0  1  0  0  0  0  0  0  0  0  0
    7.5439   -0.4237   21.0203 N   0  0  0  0  0  0  0  0  0  0  0  0
    6.7710    0.0803   19.9506 C   0  0  0  0  0  0  0  0  0  0  0  0
    5.6440    0.9061   20.2553 C   0  0  0  0  0  0  0  0  0  0  0  0
    5.2309    1.2226   21.5756 C   0  0  0  0  0  0  0  0  0  0  0  0
    4.1689    2.0553   21.8022 C   0  0  0  0  0  0  0  0  0  0  0  0
    3.4649    2.6064   20.7403 C   0  0  0  0  0  0  0  0  0  0  0  0
    3.8219    2.3309   19.4487 C   0  0  0  0  0  0  0  0  0  0  0  0
    4.9160    1.4711   19.1703 C   0  0  0  0  0  0  0  0  0  0  0  0
    5.3431    1.1626   17.8559 C   0  0  0  0  0  0  0  0  0  0  0  0
    6.3829    0.3917   17.5720 N   0  0  0  0  0  0  0  0  0  0  0  0
    7.0679   -0.1257   18.6007 C   0  0  0  0  0  0  0  0  0  0  0  0
   11.4928   -1.9938   21.3343 H   0  0  0  0  0  0  0  0  0  0  0  0
   14.5333    0.5637   22.9380 H   0  0  0  0  0  0  0  0  0  0  0  0
   12.8412    1.7389   24.3178 H   0  0  0  0  0  0  0  0  0  0  0  0
   10.0153    2.0643   24.4503 H   0  0  0  0  0  0  0  0  0  0  0  0
    8.9316   -0.5027   24.8964 H   0  0  0  0  0  0  0  0  0  0  0  0
    8.0465    0.7274   23.9320 H   0  0  0  0  0  0  0  0  0  0  0  0
    9.3712   -2.5194   23.7610 H   0  0  0  0  0  0  0  0  0  0  0  0
    7.8107   -2.1496   22.9518 H   0  0  0  0  0  0  0  0  0  0  0  0
    9.2380   -2.6314   21.9732 H   0  0  0  0  0  0  0  0  0  0  0  0
    7.2007   -1.2472   21.4721 H   0  0  0  0  0  0  0  0  0  0  0  0
    5.7632    0.7997   22.4147 H   0  0  0  0  0  0  0  0  0  0  0  0
    3.8759    2.2856   22.8159 H   0  0  0  0  0  0  0  0  0  0  0  0
    2.6270    3.2592   20.9358 H   0  0  0  0  0  0  0  0  0  0  0  0
    3.2664    2.7715   18.6341 H   0  0  0  0  0  0  0  0  0  0  0  0
    4.7855    1.5827   17.0317 H   0  0  0  0  0  0  0  0  0  0  0  0
    7.9168   -0.7515   18.3682 H   0  0  0  0  0  0  0  0  0  0  0  0
  1  2  2  0
  3  2  1  6
  2 14  1  0
  3  4  1  0
  3 12  1  0
  3 13  1  0
  4  5  2  0
  4 10  1  0
  5  6  1  0
  5 25  1  0
  6  7  1  0
  6  8  2  0
  8  9  1  0
  8 26  1  0
  9 10  2  0
  9 27  1  0
 10 11  1  0
 11 12  1  0
 11 28  1  0
 12 29  1  1
 12 30  1  0
 13 31  1  1
 13 32  1  0
 13 33  1  0
 14 15  1  0
 14 34  1  0
 15 16  2  0
 15 24  1  0
 16 17  1  0
 16 21  1  0
 17 18  2  0
 17 35  1  0
 18 19  1  0
 18 36  1  0
 19 20  2  0
 19 37  1  0
 20 21  1  0
 20 38  1  0
 21 22  2  0
 22 23  1  0
 22 39  1  0
 23 24  2  0
 24 40  1  0
M  END
$$$$
