LIG(A-306)
     RDKit          3D

 43 46  0  0  1  0  0  0  0  0999 V2000
    9.3058    1.1799   21.2601 O   0  0  0  0  0  0  0  0  0  0  0  0
    8.8515    0.1226   21.6813 C   0  0  0  0  0  0  0  0  0  0  0  0
    9.4777   -0.6459   22.8793 C   0  0  1  0  0  0  0  0  0  0  0  0
   10.9783   -0.4553   22.8557 C   0  0  0  0  0  0  0  0  0  0  0  0
   11.7657   -1.1156   21.9169 C   0  0  0  0  0  0  0  0  0  0  0  0
   13.1335   -1.0116   22.0010 C   0  0  0  0  0  0  0  0  0  0  0  0
   13.8798   -1.6321   21.0479 F   0  0  0  0  0  0  0  0  0  0  0  0
   13.7879   -0.2924   22.9720 C   0  0  0  0  0  0  0  0  0  0  0  0
   13.0035    0.3567   23.8889 C   0  0  0  0  0  0  0  0  0  0  0  0
   13.5909    1.0887   24.8629 F   0  0  0  0  0  0  0  0  0  0  0  0
   11.6206    0.2881   23.8666 C   0  0  0  0  0  0  0  0  0  0  0  0
   10.9413    0.8982   24.8867 O   0  0  0  0  0  0  0  0  0  0  0  0
    9.5675    1.1958   24.5890 C   0  0  1  0  0  0  0  0  0  0  0  0
    8.8245   -0.0421   24.1335 C   0  0  2  0  0  0  0  0  0  0  0  0
    9.1361   -2.0250   22.6926 O   0  0  0  0  0  0  0  0  0  0  0  0
    9.5167   -2.9392   23.7276 C   0  0  1  0  0  0  0  0  0  0  0  0
    7.7629   -0.4757   21.1575 N   0  0  0  0  0  0  0  0  0  0  0  0
    7.0125   -0.0309   20.0557 C   0  0  0  0  0  0  0  0  0  0  0  0
    5.8615    0.7809   20.2975 C   0  0  0  0  0  0  0  0  0  0  0  0
    5.4069    1.1384   21.5933 C   0  0  0  0  0  0  0  0  0  0  0  0
    4.3199    1.9518   21.7561 C   0  0  0  0  0  0  0  0  0  0  0  0
    3.6335    2.4417   20.6559 C   0  0  0  0  0  0  0  0  0  0  0  0
    4.0310    2.1242   19.3899 C   0  0  0  0  0  0  0  0  0  0  0  0
    5.1530    1.2866   19.1753 C   0  0  0  0  0  0  0  0  0  0  0  0
    5.6346    0.9522   17.8874 C   0  0  0  0  0  0  0  0  0  0  0  0
    6.6994    0.1974   17.6632 N   0  0  0  0  0  0  0  0  0  0  0  0
    7.3568   -0.2789   18.7282 C   0  0  0  0  0  0  0  0  0  0  0  0
   11.3082   -1.7015   21.1334 H   0  0  0  0  0  0  0  0  0  0  0  0
   14.8660   -0.2415   23.0106 H   0  0  0  0  0  0  0  0  0  0  0  0
    9.0825    1.5928   25.4930 H   0  0  0  0  0  0  0  0  0  0  0  0
    9.5291    1.9513   23.7905 H   0  0  0  0  0  0  0  0  0  0  0  0
    8.8392   -0.7884   24.9415 H   0  0  0  0  0  0  0  0  0  0  0  0
    7.7835    0.2277   23.9025 H   0  0  0  0  0  0  0  0  0  0  0  0
    9.1950   -3.9555   23.4564 H   0  0  0  0  0  0  0  0  0  0  0  0
   10.6098   -2.9209   23.8492 H   0  0  0  0  0  0  0  0  0  0  0  0
    9.0377   -2.6430   24.6726 H   0  0  0  0  0  0  0  0  0  0  0  0
    7.4588   -1.3208   21.5971 H   0  0  0  0  0  0  0  0  0  0  0  0
    5.9265    0.7631   22.4625 H   0  0  0  0  0  0  0  0  0  0  0  0
    3.9931    2.2150   22.7512 H   0  0  0  0  0  0  0  0  0  0  0  0
    2.7755    3.0810   20.8023 H   0  0  0  0  0  0  0  0  0  0  0  0
    3.4853    2.5150   18.5438 H   0  0  0  0  0  0  0  0  0  0  0  0
    5.0992    1.3374   17.0321 H   0  0  0  0  0  0  0  0  0  0  0  0
    8.2193   -0.9025   18.5445 H   0  0  0  0  0  0  0  0  0  0  0  0
  1  2  2  0
  2  3  1  0
  2 17  1  0
  3  4  1  0
  3 14  1  0
  3 15  1  6
  4  5  2  0
  4 11  1  0
  5  6  1  0
  5 28  1  0
  6  7  1  0
  6  8  2  0
  8  9  1  0
  8 29  1  0
  9 10  1  0
  9 11  2  0
 11 12  1  0
 12 13  1  0
 13 14  1  0
 13 30  1  1
 13 31  1  0
 14 32  1  1
 14 33  1  0
 15 16  1  0
 16 34  1  6
 16 35  1  0
 16 36  1  0
 17 18  1  0
 17 37  1  0
 18 19  2  0
 18 27  1  0
 19 20  1  0
 19 24  1  0
 20 21  2  0
 20 38  1  0
 21 22  1  0
 21 39  1  0
 22 23  2  0
 22 40  1  0
 23 24  1  0
 23 41  1  0
 24 25  2  0
 25 26  1  0
 25 42  1  0
 26 27  2  0
 27 43  1  0
M  END
$$$$
