LIG(A-307)
     RDKit          3D

 64 69  0  0  1  0  0  0  0  0999 V2000
    9.1214    7.2186   22.7611 N   0  0  0  0  0  0  0  0  0  0  0  0
    8.4544    6.2976   22.8091 C   0  0  0  0  0  0  0  0  0  0  0  0
    7.5975    5.1015   22.8122 C   0  0  1  0  0  0  0  0  0  0  0  0
    6.2155    5.2844   23.4045 C   0  0  1  0  0  0  0  0  0  0  0  0
    6.3693    5.2025   21.9314 C   0  0  2  0  0  0  0  0  0  0  0  0
    8.3746    3.7856   22.9331 C   0  0  1  0  0  0  0  0  0  0  0  0
    8.6918    3.0645   24.5350 S   0  0  2  0  0  0  0  0  0  0  0  0
    7.4619    2.5385   25.0342 O   0  0  0  0  0  0  0  0  0  0  0  0
    9.4089    4.0205   25.3179 O   0  0  0  0  0  0  0  0  0  0  0  0
    9.6919    1.8016   24.2848 N   0  0  0  0  0  0  0  0  0  0  0  0
    9.1999    0.4246   24.1189 C   0  0  1  0  0  0  0  0  0  0  0  0
   11.1189    1.8586   24.6346 C   0  0  1  0  0  0  0  0  0  0  0  0
   11.9558    1.0547   23.6555 C   0  0  0  0  0  0  0  0  0  0  0  0
   11.3877    0.0857   22.8105 C   0  0  0  0  0  0  0  0  0  0  0  0
   12.2026   -0.6132   21.9154 C   0  0  0  0  0  0  0  0  0  0  0  0
   13.5556   -0.3342   21.8632 C   0  0  0  0  0  0  0  0  0  0  0  0
   14.5565   -1.1981   20.7170 Cl  0  0  0  0  0  0  0  0  0  0  0  0
   14.1277    0.6129   22.6821 C   0  0  0  0  0  0  0  0  0  0  0  0
   13.3278    1.2958   23.5782 C   0  0  0  0  0  0  0  0  0  0  0  0
    9.8827   -0.1804   22.8687 C   0  0  1  0  0  0  0  0  0  0  0  0
    9.4398   -1.6524   22.6038 C   0  0  1  0  0  0  0  0  0  0  0  0
    9.4810   -2.5934   23.8077 C   0  0  1  0  0  0  0  0  0  0  0  0
   10.8971   -2.9574   24.2205 C   0  0  1  0  0  0  0  0  0  0  0  0
    9.2245    0.5366   21.6829 C   0  0  0  0  0  0  0  0  0  0  0  0
    9.5734    1.5927   21.1998 O   0  0  0  0  0  0  0  0  0  0  0  0
    8.1515   -0.2034   21.2830 N   0  0  0  0  0  0  0  0  0  0  0  0
    8.0537   -1.4844   21.9940 C   0  0  2  0  0  0  0  0  0  0  0  0
    7.2193    0.1686   20.2552 C   0  0  0  0  0  0  0  0  0  0  0  0
    6.0463    0.9385   20.5274 C   0  0  0  0  0  0  0  0  0  0  0  0
    5.6385    1.3354   21.8304 C   0  0  0  0  0  0  0  0  0  0  0  0
    4.5055    2.0754   22.0206 C   0  0  0  0  0  0  0  0  0  0  0  0
    3.7263    2.4694   20.9378 C   0  0  0  0  0  0  0  0  0  0  0  0
    4.0761    2.1164   19.6637 C   0  0  0  0  0  0  0  0  0  0  0  0
    5.2371    1.3385   19.4225 C   0  0  0  0  0  0  0  0  0  0  0  0
    5.6459    0.9375   18.1224 C   0  0  0  0  0  0  0  0  0  0  0  0
    6.7339    0.2226   17.8732 N   0  0  0  0  0  0  0  0  0  0  0  0
    7.4841   -0.1434   18.9251 C   0  0  0  0  0  0  0  0  0  0  0  0
    5.7404    4.4576   23.9528 H   0  0  0  0  0  0  0  0  0  0  0  0
    5.9430    6.2408   23.8747 H   0  0  0  0  0  0  0  0  0  0  0  0
    6.0079    4.3151   21.3912 H   0  0  0  0  0  0  0  0  0  0  0  0
    6.2104    6.0983   21.3131 H   0  0  0  0  0  0  0  0  0  0  0  0
    7.8154    3.0351   22.3549 H   0  0  0  0  0  0  0  0  0  0  0  0
    9.3550    3.9542   22.4636 H   0  0  0  0  0  0  0  0  0  0  0  0
    9.4531   -0.1718   25.0078 H   0  0  0  0  0  0  0  0  0  0  0  0
    8.1086    0.4322   23.9810 H   0  0  0  0  0  0  0  0  0  0  0  0
   11.4517    2.9070   24.6150 H   0  0  0  0  0  0  0  0  0  0  0  0
   11.2573    1.4488   25.6460 H   0  0  0  0  0  0  0  0  0  0  0  0
   11.7779   -1.3666   21.2685 H   0  0  0  0  0  0  0  0  0  0  0  0
   15.1863    0.8191   22.6250 H   0  0  0  0  0  0  0  0  0  0  0  0
   13.7735    2.0309   24.2320 H   0  0  0  0  0  0  0  0  0  0  0  0
   10.1037   -2.0642   21.8295 H   0  0  0  0  0  0  0  0  0  0  0  0
    8.9829   -2.1013   24.6560 H   0  0  0  0  0  0  0  0  0  0  0  0
    8.9412   -3.5168   23.5510 H   0  0  0  0  0  0  0  0  0  0  0  0
   10.8646   -3.6333   25.0877 H   0  0  0  0  0  0  0  0  0  0  0  0
   11.4054   -3.4588   23.3837 H   0  0  0  0  0  0  0  0  0  0  0  0
   11.4471   -2.0432   24.4887 H   0  0  0  0  0  0  0  0  0  0  0  0
    7.2813   -1.4433   22.7761 H   0  0  0  0  0  0  0  0  0  0  0  0
    7.8271   -2.3054   21.2978 H   0  0  0  0  0  0  0  0  0  0  0  0
    6.2342    1.0474   22.6840 H   0  0  0  0  0  0  0  0  0  0  0  0
    4.2122    2.3569   23.0212 H   0  0  0  0  0  0  0  0  0  0  0  0
    2.8372    3.0592   21.1047 H   0  0  0  0  0  0  0  0  0  0  0  0
    3.4625    2.4331   18.8333 H   0  0  0  0  0  0  0  0  0  0  0  0
    5.0319    1.2337   17.2848 H   0  0  0  0  0  0  0  0  0  0  0  0
    8.3680   -0.7296   18.7216 H   0  0  0  0  0  0  0  0  0  0  0  0
  1  2  3  0
  3  2  1  6
  3  4  1  0
  3  5  1  0
  3  6  1  0
  4  5  1  0
  4 38  1  1
  4 39  1  0
  5 40  1  6
  5 41  1  0
  6  7  1  0
  6 42  1  6
  6 43  1  0
  7  8  2  0
  7  9  2  0
  7 10  1  6
 10 11  1  0
 10 12  1  0
 11 20  1  0
 11 44  1  1
 11 45  1  0
 12 13  1  0
 12 46  1  1
 12 47  1  0
 13 14  2  0
 13 19  1  0
 14 15  1  0
 14 20  1  0
 15 16  2  0
 15 48  1  0
 16 17  1  0
 16 18  1  0
 18 19  2  0
 18 49  1  0
 19 50  1  0
 20 21  1  0
 20 24  1  6
 21 22  1  0
 21 27  1  0
 21 51  1  6
 22 23  1  0
 22 52  1  1
 22 53  1  0
 23 54  1  1
 23 55  1  0
 23 56  1  0
 24 25  2  0
 24 26  1  0
 26 27  1  0
 26 28  1  0
 27 57  1  1
 27 58  1  0
 28 29  2  0
 28 37  1  0
 29 30  1  0
 29 34  1  0
 30 31  2  0
 30 59  1  0
 31 32  1  0
 31 60  1  0
 32 33  2  0
 32 61  1  0
 33 34  1  0
 33 62  1  0
 34 35  2  0
 35 36  1  0
 35 63  1  0
 36 37  2  0
 37 64  1  0
M  END
$$$$
