LIG(A-305)
     RDKit          3D

 48 50  0  0  0  0  0  0  0  0999 V2000
    6.1500   -3.2256   20.7343 O   0  0  0  0  0  0  0  0  0  0  0  0
    6.8571   -2.4677   21.3853 C   0  0  0  0  0  0  0  0  0  0  0  0
    6.9381   -2.5426   22.7303 N   0  0  0  0  0  0  0  0  0  0  0  0
    7.1960   -3.7606   23.4693 C   0  0  1  0  0  0  0  0  0  0  0  0
    6.2159   -4.8755   23.2914 C   0  0  0  0  0  0  0  0  0  0  0  0
    5.0869   -5.1654   23.9975 C   0  0  0  0  0  0  0  0  0  0  0  0
    6.4548   -5.9056   22.4395 N   0  0  0  0  0  0  0  0  0  0  0  0
    5.5388   -6.8275   22.6126 N   0  0  0  0  0  0  0  0  0  0  0  0
    4.7088   -6.3794   23.5745 N   0  0  0  0  0  0  0  0  0  0  0  0
    3.5998   -7.1852   24.0696 C   0  0  1  0  0  0  0  0  0  0  0  0
    7.6671   -1.5498   20.7752 N   0  0  0  0  0  0  0  0  0  0  0  0
    7.6021   -1.3888   19.3182 C   0  0  1  0  0  0  0  0  0  0  0  0
    6.7342   -0.2318   18.8792 C   0  0  0  0  0  0  0  0  0  0  0  0
    6.9132    0.3801   17.6511 C   0  0  0  0  0  0  0  0  0  0  0  0
    6.1713    1.4042   17.2091 N   0  0  0  0  0  0  0  0  0  0  0  0
    5.2034    1.8553   18.0171 C   0  0  0  0  0  0  0  0  0  0  0  0
    4.9513    1.3264   19.2631 C   0  0  0  0  0  0  0  0  0  0  0  0
    5.7283    0.2663   19.6921 C   0  0  0  0  0  0  0  0  0  0  0  0
    8.7332   -0.7978   21.4581 C   0  0  1  0  0  0  0  0  0  0  0  0
    9.7282   -1.7008   22.1892 C   0  0  1  0  0  0  0  0  0  0  0  0
   10.9942   -0.9989   22.6181 C   0  0  0  0  0  0  0  0  0  0  0  0
   12.2132   -1.3311   22.0411 C   0  0  0  0  0  0  0  0  0  0  0  0
   13.3732   -0.6611   22.3980 C   0  0  0  0  0  0  0  0  0  0  0  0
   13.3313    0.3369   23.3510 C   0  0  0  0  0  0  0  0  0  0  0  0
   12.1304    0.6601   23.9520 C   0  0  0  0  0  0  0  0  0  0  0  0
   10.9673   -0.0009   23.5861 C   0  0  0  0  0  0  0  0  0  0  0  0
    6.8113   -1.6991   23.2522 H   0  0  0  0  0  0  0  0  0  0  0  0
    8.1842   -4.1336   23.1622 H   0  0  0  0  0  0  0  0  0  0  0  0
    7.2173   -3.5032   24.5386 H   0  0  0  0  0  0  0  0  0  0  0  0
    4.6010   -4.5487   24.7390 H   0  0  0  0  0  0  0  0  0  0  0  0
    2.6567   -6.6360   23.9320 H   0  0  0  0  0  0  0  0  0  0  0  0
    3.5572   -8.1323   23.5117 H   0  0  0  0  0  0  0  0  0  0  0  0
    3.7485   -7.3960   25.1389 H   0  0  0  0  0  0  0  0  0  0  0  0
    8.6216   -1.2228   18.9401 H   0  0  0  0  0  0  0  0  0  0  0  0
    7.1958   -2.3139   18.8833 H   0  0  0  0  0  0  0  0  0  0  0  0
    7.6992    0.0095   17.0097 H   0  0  0  0  0  0  0  0  0  0  0  0
    4.5896    2.6751   17.6741 H   0  0  0  0  0  0  0  0  0  0  0  0
    4.1680    1.7287   19.8883 H   0  0  0  0  0  0  0  0  0  0  0  0
    5.5510   -0.1742   20.6622 H   0  0  0  0  0  0  0  0  0  0  0  0
    9.2808   -0.2075   20.7088 H   0  0  0  0  0  0  0  0  0  0  0  0
    8.2702   -0.1209   22.1912 H   0  0  0  0  0  0  0  0  0  0  0  0
    9.2351   -2.1038   23.0862 H   0  0  0  0  0  0  0  0  0  0  0  0
   10.0018   -2.5284   21.5182 H   0  0  0  0  0  0  0  0  0  0  0  0
   12.2578   -2.1206   21.3055 H   0  0  0  0  0  0  0  0  0  0  0  0
   14.3113   -0.9204   21.9298 H   0  0  0  0  0  0  0  0  0  0  0  0
   14.2338    0.8629   23.6254 H   0  0  0  0  0  0  0  0  0  0  0  0
   12.0970    1.4296   24.7090 H   0  0  0  0  0  0  0  0  0  0  0  0
   10.0318    0.2621   24.0574 H   0  0  0  0  0  0  0  0  0  0  0  0
  1  2  2  0
  2  3  1  0
  2 11  1  0
  3  4  1  0
  3 27  1  0
  4  5  1  0
  4 28  1  6
  4 29  1  0
  5  6  2  0
  5  7  1  0
  6  9  1  0
  6 30  1  0
  7  8  2  0
  8  9  1  0
  9 10  1  0
 10 31  1  1
 10 32  1  0
 10 33  1  0
 11 12  1  0
 11 19  1  0
 12 13  1  0
 12 34  1  6
 12 35  1  0
 13 14  2  0
 13 18  1  0
 14 15  1  0
 14 36  1  0
 15 16  2  0
 16 17  1  0
 16 37  1  0
 17 18  2  0
 17 38  1  0
 18 39  1  0
 19 20  1  0
 19 40  1  6
 19 41  1  0
 20 21  1  0
 20 42  1  1
 20 43  1  0
 21 22  2  0
 21 26  1  0
 22 23  1  0
 22 44  1  0
 23 24  2  0
 23 45  1  0
 24 25  1  0
 24 46  1  0
 25 26  2  0
 25 47  1  0
 26 48  1  0
M  END
$$$$
