LIG(A-305)
     RDKit          3D

 38 38  0  0  0  0  0  0  0  0999 V2000
    7.1071   -3.3799   26.5139 N   0  0  0  0  0  0  0  0  0  0  0  0
    9.0820   -4.7861   27.0664 C   0  0  1  0  0  0  0  0  0  0  0  0
    5.1019   -3.2486   25.4703 O   0  0  0  0  0  0  0  0  0  0  0  0
    7.6391   -4.4540   27.3908 C   0  0  2  0  0  0  0  0  0  0  0  0
    6.5516   -4.2967   20.1010 C   0  0  0  0  0  0  0  0  0  0  0  0
    7.1026   -3.1617   19.2799 C   0  0  1  0  0  0  0  0  0  0  0  0
    6.7490   -5.6798   27.4159 C   0  0  1  0  0  0  0  0  0  0  0  0
    7.6273   -2.0369   26.7868 C   0  0  1  0  0  0  0  0  0  0  0  0
    6.2848   -3.6047   25.4691 C   0  0  0  0  0  0  0  0  0  0  0  0
    6.9335   -4.1718   24.2179 C   0  0  1  0  0  0  0  0  0  0  0  0
    5.9892   -5.1037   23.4551 C   0  0  1  0  0  0  0  0  0  0  0  0
    6.6479   -5.5977   22.1919 C   0  0  1  0  0  0  0  0  0  0  0  0
    7.9811   -3.5539   22.0157 C   0  0  1  0  0  0  0  0  0  0  0  0
    7.3804   -3.0288   23.2978 C   0  0  2  0  0  0  0  0  0  0  0  0
    7.0429   -4.4638   21.3499 N   0  0  0  0  0  0  0  0  0  0  0  0
    5.6924   -5.0305   19.6321 O   0  0  0  0  0  0  0  0  0  0  0  0
    9.4349   -5.5835   27.7371 H   0  0  0  0  0  0  0  0  0  0  0  0
    9.1542   -5.1262   26.0228 H   0  0  0  0  0  0  0  0  0  0  0  0
    9.7044   -3.8895   27.2038 H   0  0  0  0  0  0  0  0  0  0  0  0
    7.6387   -4.0523   28.4148 H   0  0  0  0  0  0  0  0  0  0  0  0
    6.6152   -3.1515   18.2938 H   0  0  0  0  0  0  0  0  0  0  0  0
    6.9086   -2.2091   19.7945 H   0  0  0  0  0  0  0  0  0  0  0  0
    8.1869   -3.2949   19.1515 H   0  0  0  0  0  0  0  0  0  0  0  0
    7.1894   -6.4399   28.0780 H   0  0  0  0  0  0  0  0  0  0  0  0
    5.7524   -5.4015   27.7892 H   0  0  0  0  0  0  0  0  0  0  0  0
    6.6585   -6.0881   26.3985 H   0  0  0  0  0  0  0  0  0  0  0  0
    7.1740   -1.3186   26.0879 H   0  0  0  0  0  0  0  0  0  0  0  0
    7.3788   -1.7504   27.8194 H   0  0  0  0  0  0  0  0  0  0  0  0
    8.7198   -2.0340   26.6584 H   0  0  0  0  0  0  0  0  0  0  0  0
    7.8235   -4.7461   24.5147 H   0  0  0  0  0  0  0  0  0  0  0  0
    5.7354   -5.9637   24.0921 H   0  0  0  0  0  0  0  0  0  0  0  0
    5.0711   -4.5563   23.1953 H   0  0  0  0  0  0  0  0  0  0  0  0
    7.5408   -6.1845   22.4533 H   0  0  0  0  0  0  0  0  0  0  0  0
    5.9410   -6.2328   21.6380 H   0  0  0  0  0  0  0  0  0  0  0  0
    8.2043   -2.7095   21.3470 H   0  0  0  0  0  0  0  0  0  0  0  0
    8.9107   -4.0953   22.2454 H   0  0  0  0  0  0  0  0  0  0  0  0
    8.1324   -2.4209   23.8223 H   0  0  0  0  0  0  0  0  0  0  0  0
    6.5085   -2.4039   23.0545 H   0  0  0  0  0  0  0  0  0  0  0  0
  1  4  1  0
  1  8  1  0
  1  9  1  0
  2  4  1  0
  2 17  1  1
  2 18  1  0
  2 19  1  0
  3  9  2  0
  4  7  1  0
  4 20  1  1
  5  6  1  0
  5 15  1  0
  5 16  2  0
  6 21  1  6
  6 22  1  0
  6 23  1  0
  7 24  1  1
  7 25  1  0
  7 26  1  0
  8 27  1  6
  8 28  1  0
  8 29  1  0
  9 10  1  0
 10 11  1  0
 10 14  1  0
 10 30  1  1
 11 12  1  0
 11 31  1  1
 11 32  1  0
 12 15  1  0
 12 33  1  1
 12 34  1  0
 13 14  1  0
 13 15  1  0
 13 35  1  6
 13 36  1  0
 14 37  1  1
 14 38  1  0
M  END
$$$$
