LIG(A-301)
     RDKit          3D

 68 71  0  0  1  0  0  0  0  0999 V2000
    6.7400   -0.0606   24.9129 O   0  0  0  0  0  0  0  0  0  0  0  0
    7.5411   -0.8842   25.2907 C   0  0  0  0  0  0  0  0  0  0  0  0
    8.5871   -1.2837   24.5513 N   0  0  0  0  0  0  0  0  0  0  0  0
    7.4448   -1.4840   26.6787 C   0  0  1  0  0  0  0  0  0  0  0  0
    6.0472   -1.9702   28.6592 N   0  0  0  0  0  0  0  0  0  0  0  0
    6.0940   -4.2441   19.7563 O   0  0  0  0  0  0  0  0  0  0  0  0
    7.0016   -3.5679   20.1716 C   0  0  0  0  0  0  0  0  0  0  0  0
    6.9473   -2.0377   20.2198 C   0  0  2  0  0  0  0  0  0  0  0  0
    6.8557   -1.4764   18.8157 C   0  0  1  0  0  0  0  0  0  0  0  0
    6.0187   -0.2545   18.6207 C   0  0  0  0  0  0  0  0  0  0  0  0
    5.8740    0.3647   17.4520 N   0  0  0  0  0  0  0  0  0  0  0  0
    5.0424    1.3932   17.6118 C   0  0  0  0  0  0  0  0  0  0  0  0
    4.6547    1.4397   18.8863 N   0  0  0  0  0  0  0  0  0  0  0  0
    5.2517    0.4178   19.5273 C   0  0  0  0  0  0  0  0  0  0  0  0
    8.1191   -1.4593   20.8873 N   0  0  1  0  0  0  0  0  0  0  0  0
    8.1334   -1.8783   22.2724 C   0  0  1  0  0  0  0  0  0  0  0  0
    8.6862   -0.7898   23.1689 C   0  0  2  0  0  0  0  0  0  0  0  0
   10.1286   -0.3904   22.8317 C   0  0  1  0  0  0  0  0  0  0  0  0
   11.2107   -1.3518   23.2812 C   0  0  1  0  0  0  0  0  0  0  0  0
   12.5854   -0.7027   23.0995 C   0  0  1  0  0  0  0  0  0  0  0  0
   13.6894   -1.6095   23.5997 C   0  0  1  0  0  0  0  0  0  0  0  0
   13.4539   -2.1574   25.0108 C   0  0  1  0  0  0  0  0  0  0  0  0
   12.0470   -2.6992   25.1795 C   0  0  1  0  0  0  0  0  0  0  0  0
   11.0142   -1.6774   24.7308 C   0  0  2  0  0  0  0  0  0  0  0  0
    9.6215   -2.2137   25.0031 C   0  0  2  0  0  0  0  0  0  0  0  0
    6.1267   -1.2486   27.4003 C   0  0  2  0  0  0  0  0  0  0  0  0
    6.3946   -3.2728   28.7953 C   0  0  0  0  0  0  0  0  0  0  0  0
    6.3296   -4.1692   27.7214 C   0  0  0  0  0  0  0  0  0  0  0  0
    6.7263   -5.5026   27.8832 C   0  0  0  0  0  0  0  0  0  0  0  0
    7.1689   -5.9233   29.1314 C   0  0  0  0  0  0  0  0  0  0  0  0
    7.2139   -5.0453   30.1897 C   0  0  0  0  0  0  0  0  0  0  0  0
    6.8411   -3.7258   30.0142 C   0  0  0  0  0  0  0  0  0  0  0  0
    7.5941   -2.5702   26.5902 H   0  0  0  0  0  0  0  0  0  0  0  0
    8.2495   -1.0520   27.2919 H   0  0  0  0  0  0  0  0  0  0  0  0
    5.2942   -1.6821   29.2508 H   0  0  0  0  0  0  0  0  0  0  0  0
    7.8934   -4.0635   20.5258 H   0  0  0  0  0  0  0  0  0  0  0  0
    6.0411   -1.7442   20.7699 H   0  0  0  0  0  0  0  0  0  0  0  0
    7.8777   -1.2325   18.4897 H   0  0  0  0  0  0  0  0  0  0  0  0
    6.4436   -2.2659   18.1702 H   0  0  0  0  0  0  0  0  0  0  0  0
    6.3166    0.1014   16.5948 H   0  0  0  0  0  0  0  0  0  0  0  0
    4.7329    2.0775   16.8357 H   0  0  0  0  0  0  0  0  0  0  0  0
    5.1430    0.1733   20.5736 H   0  0  0  0  0  0  0  0  0  0  0  0
    8.9523   -1.7756   20.4336 H   0  0  0  0  0  0  0  0  0  0  0  0
    8.0721   -0.4615   20.8402 H   0  0  0  0  0  0  0  0  0  0  0  0
    7.1059   -2.1142   22.5864 H   0  0  0  0  0  0  0  0  0  0  0  0
    8.7617   -2.7761   22.3691 H   0  0  0  0  0  0  0  0  0  0  0  0
    8.0509    0.1019   23.0627 H   0  0  0  0  0  0  0  0  0  0  0  0
   10.2022   -0.2891   21.7389 H   0  0  0  0  0  0  0  0  0  0  0  0
   10.3266    0.5830   23.3044 H   0  0  0  0  0  0  0  0  0  0  0  0
   11.1590   -2.2724   22.6814 H   0  0  0  0  0  0  0  0  0  0  0  0
   12.7466   -0.4971   22.0309 H   0  0  0  0  0  0  0  0  0  0  0  0
   12.6138    0.2415   23.6630 H   0  0  0  0  0  0  0  0  0  0  0  0
   13.7780   -2.4605   22.9085 H   0  0  0  0  0  0  0  0  0  0  0  0
   14.6304   -1.0399   23.6023 H   0  0  0  0  0  0  0  0  0  0  0  0
   14.1726   -2.9679   25.2022 H   0  0  0  0  0  0  0  0  0  0  0  0
   13.6127   -1.3473   25.7379 H   0  0  0  0  0  0  0  0  0  0  0  0
   11.9376   -3.6113   24.5746 H   0  0  0  0  0  0  0  0  0  0  0  0
   11.8786   -2.9398   26.2396 H   0  0  0  0  0  0  0  0  0  0  0  0
   11.1551   -0.7594   25.3204 H   0  0  0  0  0  0  0  0  0  0  0  0
    9.4976   -3.1698   24.4736 H   0  0  0  0  0  0  0  0  0  0  0  0
    9.5071   -2.3763   26.0850 H   0  0  0  0  0  0  0  0  0  0  0  0
    5.3040   -1.5808   26.7502 H   0  0  0  0  0  0  0  0  0  0  0  0
    6.0224   -0.1725   27.6029 H   0  0  0  0  0  0  0  0  0  0  0  0
    5.9708   -3.8297   26.7610 H   0  0  0  0  0  0  0  0  0  0  0  0
    6.6889   -6.1917   27.0524 H   0  0  0  0  0  0  0  0  0  0  0  0
    7.4801   -6.9479   29.2719 H   0  0  0  0  0  0  0  0  0  0  0  0
    7.5414   -5.3880   31.1601 H   0  0  0  0  0  0  0  0  0  0  0  0
    6.9014   -3.0407   30.8468 H   0  0  0  0  0  0  0  0  0  0  0  0
  1  2  2  0
  2  3  1  0
  2  4  1  0
  3 17  1  0
  3 25  1  0
  4 26  1  0
  4 33  1  6
  4 34  1  0
  5 26  1  0
  5 27  1  0
  5 35  1  0
  6  7  2  0
  7  8  1  0
  7 36  1  0
  8  9  1  0
  8 15  1  0
  8 37  1  1
  9 10  1  0
  9 38  1  6
  9 39  1  0
 10 11  1  0
 10 14  2  0
 11 12  1  0
 11 40  1  0
 12 13  2  0
 12 41  1  0
 13 14  1  0
 14 42  1  0
 15 16  1  0
 15 43  1  6
 15 44  1  0
 16 17  1  0
 16 45  1  1
 16 46  1  0
 17 18  1  0
 17 47  1  1
 18 19  1  0
 18 48  1  6
 18 49  1  0
 19 20  1  0
 19 24  1  0
 19 50  1  6
 20 21  1  0
 20 51  1  6
 20 52  1  0
 21 22  1  0
 21 53  1  6
 21 54  1  0
 22 23  1  0
 22 55  1  1
 22 56  1  0
 23 24  1  0
 23 57  1  6
 23 58  1  0
 24 25  1  0
 24 59  1  1
 25 60  1  6
 25 61  1  0
 26 62  1  6
 26 63  1  0
 27 28  2  0
 27 32  1  0
 28 29  1  0
 28 64  1  0
 29 30  2  0
 29 65  1  0
 30 31  1  0
 30 66  1  0
 31 32  2  0
 31 67  1  0
 32 68  1  0
M  CHG  1  15   1
M  END
$$$$
