LIG(A-305)
     RDKit          3D

 30 31  0  0  0  0  0  0  0  0999 V2000
    7.9816    4.3894   22.5363 N   0  0  0  0  0  0  0  0  0  0  0  0
    7.8767    3.2574   22.4283 C   0  0  0  0  0  0  0  0  0  0  0  0
    7.8057    1.7923   22.2884 C   0  0  1  0  0  0  0  0  0  0  0  0
    6.5097    1.2713   21.9355 O   0  0  0  0  0  0  0  0  0  0  0  0
    6.2825    0.9403   20.6215 C   0  0  0  0  0  0  0  0  0  0  0  0
    5.5534    1.7572   19.7686 C   0  0  0  0  0  0  0  0  0  0  0  0
    5.5393    1.4802   18.4106 C   0  0  0  0  0  0  0  0  0  0  0  0
    6.2553    0.4152   17.9086 C   0  0  0  0  0  0  0  0  0  0  0  0
    6.9384   -0.4328   18.7635 C   0  0  0  0  0  0  0  0  0  0  0  0
    6.9215   -0.2117   20.1435 C   0  0  0  0  0  0  0  0  0  0  0  0
    7.4136   -1.3507   20.9855 C   0  0  0  0  0  0  0  0  0  0  0  0
    6.6857   -2.3127   21.2146 O   0  0  0  0  0  0  0  0  0  0  0  0
    8.6537   -1.2606   21.4764 N   0  0  0  0  0  0  0  0  0  0  0  0
    9.1078   -2.1376   22.5333 C   0  0  1  0  0  0  0  0  0  0  0  0
   10.4789   -1.7956   23.0102 C   0  0  0  0  0  0  0  0  0  0  0  0
   10.8760   -1.6665   24.3092 C   0  0  0  0  0  0  0  0  0  0  0  0
   12.5270   -1.3355   24.3810 S   0  0  0  0  0  0  0  0  0  0  0  0
   12.7288   -1.3565   22.7220 N   0  0  0  0  0  0  0  0  0  0  0  0
   11.5648   -1.6046   22.1381 C   0  0  0  0  0  0  0  0  0  0  0  0
    8.5181    1.4904   21.5065 H   0  0  0  0  0  0  0  0  0  0  0  0
    8.1028    1.3442   23.2480 H   0  0  0  0  0  0  0  0  0  0  0  0
    5.0028    2.6002   20.1591 H   0  0  0  0  0  0  0  0  0  0  0  0
    4.9636    2.1029   17.7418 H   0  0  0  0  0  0  0  0  0  0  0  0
    6.2837    0.2412   16.8431 H   0  0  0  0  0  0  0  0  0  0  0  0
    7.4882   -1.2709   18.3614 H   0  0  0  0  0  0  0  0  0  0  0  0
    9.2792   -0.5740   21.1059 H   0  0  0  0  0  0  0  0  0  0  0  0
    8.4102   -2.0598   23.3803 H   0  0  0  0  0  0  0  0  0  0  0  0
    9.1131   -3.1710   22.1564 H   0  0  0  0  0  0  0  0  0  0  0  0
   10.2267   -1.7626   25.1668 H   0  0  0  0  0  0  0  0  0  0  0  0
   11.4579   -1.6564   21.0646 H   0  0  0  0  0  0  0  0  0  0  0  0
  1  2  3  0
  2  3  1  0
  3  4  1  0
  3 20  1  6
  3 21  1  0
  4  5  1  0
  5  6  2  0
  5 10  1  0
  6  7  1  0
  6 22  1  0
  7  8  2  0
  7 23  1  0
  8  9  1  0
  8 24  1  0
  9 10  2  0
  9 25  1  0
 10 11  1  0
 11 12  2  0
 11 13  1  0
 13 14  1  0
 13 26  1  0
 14 15  1  0
 14 27  1  1
 14 28  1  0
 15 16  2  0
 15 19  1  0
 16 17  1  0
 16 29  1  0
 17 18  1  0
 18 19  2  0
 19 30  1  0
M  END
$$$$
