LIG(A-306)
     RDKit          3D

 38 41  0  0  1  0  0  0  0  0999 V2000
    9.2625    1.1205   21.0394 O   0  0  0  0  0  0  0  0  0  0  0  0
    8.7751    0.0138   21.2215 C   0  0  0  0  0  0  0  0  0  0  0  0
    9.4479   -1.2064   21.8252 C   0  0  1  0  0  0  0  0  0  0  0  0
   10.7646   -0.8889   22.5148 C   0  0  0  0  0  0  0  0  0  0  0  0
   10.9054    0.0746   23.5039 C   0  0  0  0  0  0  0  0  0  0  0  0
   12.1652    0.5247   23.8759 C   0  0  0  0  0  0  0  0  0  0  0  0
   13.2991    0.0209   23.2508 C   0  0  0  0  0  0  0  0  0  0  0  0
   11.9005   -1.4424   21.9420 C   0  0  0  0  0  0  0  0  0  0  0  0
   13.1413   -0.9500   22.2754 C   0  0  0  0  0  0  0  0  0  0  0  0
   14.5143   -1.4470   21.3224 Cl  0  0  0  0  0  0  0  0  0  0  0  0
    7.4991   -0.3692   20.9566 N   0  0  0  0  0  0  0  0  0  0  0  0
    7.0993   -1.5454   21.7588 C   0  0  1  0  0  0  0  0  0  0  0  0
    8.3133   -1.7842   22.6729 C   0  0  1  0  0  0  0  0  0  0  0  0
    6.6639    0.1887   19.9403 C   0  0  0  0  0  0  0  0  0  0  0  0
    5.5431    1.0105   20.2507 C   0  0  0  0  0  0  0  0  0  0  0  0
    5.1648    1.3813   21.5687 C   0  0  0  0  0  0  0  0  0  0  0  0
    4.1017    2.2113   21.7882 C   0  0  0  0  0  0  0  0  0  0  0  0
    3.3614    2.7070   20.7256 C   0  0  0  0  0  0  0  0  0  0  0  0
    3.6849    2.3807   19.4392 C   0  0  0  0  0  0  0  0  0  0  0  0
    4.7851    1.5319   19.1650 C   0  0  0  0  0  0  0  0  0  0  0  0
    5.2073    1.2081   17.8509 C   0  0  0  0  0  0  0  0  0  0  0  0
    6.2603    0.4572   17.5692 N   0  0  0  0  0  0  0  0  0  0  0  0
    6.9561   -0.0352   18.5997 C   0  0  0  0  0  0  0  0  0  0  0  0
    9.6549   -1.9167   21.0111 H   0  0  0  0  0  0  0  0  0  0  0  0
   10.0281    0.4774   23.9882 H   0  0  0  0  0  0  0  0  0  0  0  0
   12.2639    1.2683   24.6529 H   0  0  0  0  0  0  0  0  0  0  0  0
   14.2821    0.3784   23.5195 H   0  0  0  0  0  0  0  0  0  0  0  0
   11.8112   -2.2561   21.2375 H   0  0  0  0  0  0  0  0  0  0  0  0
    6.1975   -1.3299   22.3507 H   0  0  0  0  0  0  0  0  0  0  0  0
    6.9148   -2.4172   21.1138 H   0  0  0  0  0  0  0  0  0  0  0  0
    8.4639   -2.8559   22.8700 H   0  0  0  0  0  0  0  0  0  0  0  0
    8.2102   -1.2470   23.6272 H   0  0  0  0  0  0  0  0  0  0  0  0
    5.7258    1.0017   22.4098 H   0  0  0  0  0  0  0  0  0  0  0  0
    3.8355    2.4838   22.7988 H   0  0  0  0  0  0  0  0  0  0  0  0
    2.5207    3.3575   20.9169 H   0  0  0  0  0  0  0  0  0  0  0  0
    3.0963    2.7737   18.6235 H   0  0  0  0  0  0  0  0  0  0  0  0
    4.6318    1.5999   17.0253 H   0  0  0  0  0  0  0  0  0  0  0  0
    7.8112   -0.6548   18.3729 H   0  0  0  0  0  0  0  0  0  0  0  0
  1  2  2  0
  2  3  1  0
  2 11  1  0
  3  4  1  0
  3 13  1  0
  3 24  1  6
  4  5  2  0
  4  8  1  0
  5  6  1  0
  5 25  1  0
  6  7  2  0
  6 26  1  0
  7  9  1  0
  7 27  1  0
  8  9  2  0
  8 28  1  0
  9 10  1  0
 11 12  1  0
 11 14  1  0
 12 13  1  0
 12 29  1  1
 12 30  1  0
 13 31  1  1
 13 32  1  0
 14 15  2  0
 14 23  1  0
 15 16  1  0
 15 20  1  0
 16 17  2  0
 16 33  1  0
 17 18  1  0
 17 34  1  0
 18 19  2  0
 18 35  1  0
 19 20  1  0
 19 36  1  0
 20 21  2  0
 21 22  1  0
 21 37  1  0
 22 23  2  0
 23 38  1  0
M  END
$$$$
