LIG(A-306)
     RDKit          3D

 53 57  0  0  1  0  0  0  0  0999 V2000
   11.0496    3.1178   24.4199 O   0  0  0  0  0  0  0  0  0  0  0  0
   10.6613    2.0002   24.1459 C   0  0  0  0  0  0  0  0  0  0  0  0
    9.3944    1.5914   24.4116 N   0  0  0  0  0  0  0  0  0  0  0  0
    8.5128    2.4163   25.2182 C   0  0  1  0  0  0  0  0  0  0  0  0
    7.8496    3.5896   24.5105 C   0  0  0  0  0  0  0  0  0  0  0  0
    7.1606    4.3827   25.1465 O   0  0  0  0  0  0  0  0  0  0  0  0
    8.0202    3.7031   23.1985 N   0  0  0  0  0  0  0  0  0  0  0  0
    7.2335    4.6194   22.3923 C   0  0  1  0  0  0  0  0  0  0  0  0
   11.5337    1.0283   23.4692 C   0  0  0  0  0  0  0  0  0  0  0  0
   12.8946    1.3064   23.3733 C   0  0  0  0  0  0  0  0  0  0  0  0
   13.7375    0.4464   22.6966 C   0  0  0  0  0  0  0  0  0  0  0  0
   13.2187   -0.6993   22.1359 C   0  0  0  0  0  0  0  0  0  0  0  0
   14.2685   -1.7405   21.2214 Cl  0  0  0  0  0  0  0  0  0  0  0  0
   11.8776   -1.0235   22.2380 C   0  0  0  0  0  0  0  0  0  0  0  0
   11.0168   -0.1400   22.8851 C   0  0  0  0  0  0  0  0  0  0  0  0
    9.4981   -0.3216   22.8238 C   0  0  1  0  0  0  0  0  0  0  0  0
    8.9536    0.2144   24.1754 C   0  0  2  0  0  0  0  0  0  0  0  0
    8.8625    0.4856   21.6829 C   0  0  0  0  0  0  0  0  0  0  0  0
    9.1878    1.6025   21.3256 O   0  0  0  0  0  0  0  0  0  0  0  0
    7.8454   -0.2480   21.1538 N   0  0  0  0  0  0  0  0  0  0  0  0
    7.6804   -1.5533   21.8168 C   0  0  1  0  0  0  0  0  0  0  0  0
    9.0240   -1.7650   22.5164 C   0  0  1  0  0  0  0  0  0  0  0  0
    6.9918    0.1839   20.0874 C   0  0  0  0  0  0  0  0  0  0  0  0
    5.8646    1.0128   20.3741 C   0  0  0  0  0  0  0  0  0  0  0  0
    5.4990    1.4099   21.6869 C   0  0  0  0  0  0  0  0  0  0  0  0
    4.4146    2.2236   21.8671 C   0  0  0  0  0  0  0  0  0  0  0  0
    4.0609    2.8093   23.4709 Cl  0  0  0  0  0  0  0  0  0  0  0  0
    3.6329    2.6596   20.8078 C   0  0  0  0  0  0  0  0  0  0  0  0
    3.9619    2.2991   19.5330 C   0  0  0  0  0  0  0  0  0  0  0  0
    5.0819    1.4738   19.2772 C   0  0  0  0  0  0  0  0  0  0  0  0
    5.4746    1.0750   17.9715 C   0  0  0  0  0  0  0  0  0  0  0  0
    6.5260    0.3108   17.7089 N   0  0  0  0  0  0  0  0  0  0  0  0
    7.2514   -0.1170   18.7537 C   0  0  0  0  0  0  0  0  0  0  0  0
    7.7156    1.7686   25.6119 H   0  0  0  0  0  0  0  0  0  0  0  0
    9.1035    2.8198   26.0539 H   0  0  0  0  0  0  0  0  0  0  0  0
    8.7137    3.1388   22.7507 H   0  0  0  0  0  0  0  0  0  0  0  0
    7.5458    4.5439   21.3403 H   0  0  0  0  0  0  0  0  0  0  0  0
    6.1678    4.3605   22.4778 H   0  0  0  0  0  0  0  0  0  0  0  0
    7.3905    5.6483   22.7483 H   0  0  0  0  0  0  0  0  0  0  0  0
   13.2936    2.1997   23.8308 H   0  0  0  0  0  0  0  0  0  0  0  0
   14.7904    0.6697   22.6083 H   0  0  0  0  0  0  0  0  0  0  0  0
   11.5038   -1.9475   21.8223 H   0  0  0  0  0  0  0  0  0  0  0  0
    7.8541    0.1873   24.1562 H   0  0  0  0  0  0  0  0  0  0  0  0
    9.3219   -0.4257   24.9906 H   0  0  0  0  0  0  0  0  0  0  0  0
    6.8570   -1.5239   22.5455 H   0  0  0  0  0  0  0  0  0  0  0  0
    7.4900   -2.3481   21.0804 H   0  0  0  0  0  0  0  0  0  0  0  0
    9.7356   -2.2808   21.8549 H   0  0  0  0  0  0  0  0  0  0  0  0
    8.8987   -2.3443   23.4431 H   0  0  0  0  0  0  0  0  0  0  0  0
    6.0729    1.0719   22.5372 H   0  0  0  0  0  0  0  0  0  0  0  0
    2.7687    3.2809   20.9905 H   0  0  0  0  0  0  0  0  0  0  0  0
    3.3587    2.6489   18.7082 H   0  0  0  0  0  0  0  0  0  0  0  0
    4.8779    1.4164   17.1385 H   0  0  0  0  0  0  0  0  0  0  0  0
    8.1045   -0.7447   18.5428 H   0  0  0  0  0  0  0  0  0  0  0  0
  1  2  2  0
  2  3  1  0
  2  9  1  0
  3  4  1  0
  3 17  1  0
  4  5  1  0
  4 34  1  1
  4 35  1  0
  5  6  2  0
  5  7  1  0
  7  8  1  0
  7 36  1  0
  8 37  1  6
  8 38  1  0
  8 39  1  0
  9 10  2  0
  9 15  1  0
 10 11  1  0
 10 40  1  0
 11 12  2  0
 11 41  1  0
 12 13  1  0
 12 14  1  0
 14 15  2  0
 14 42  1  0
 15 16  1  0
 16 17  1  0
 16 18  1  6
 16 22  1  0
 17 43  1  6
 17 44  1  0
 18 19  2  0
 18 20  1  0
 20 21  1  0
 20 23  1  0
 21 22  1  0
 21 45  1  1
 21 46  1  0
 22 47  1  6
 22 48  1  0
 23 24  2  0
 23 33  1  0
 24 25  1  0
 24 30  1  0
 25 26  2  0
 25 49  1  0
 26 27  1  0
 26 28  1  0
 28 29  2  0
 28 50  1  0
 29 30  1  0
 29 51  1  0
 30 31  2  0
 31 32  1  0
 31 52  1  0
 32 33  2  0
 33 53  1  0
M  END
$$$$
