LIG(A-306)
     RDKit          3D

 42 44  0  0  0  0  0  0  0  0999 V2000
   14.1109   -1.2168   21.7542 Cl  0  0  0  0  0  0  0  0  0  0  0  0
   12.6849   -0.8310   22.6792 C   0  0  0  0  0  0  0  0  0  0  0  0
   12.7859    0.0499   23.7333 C   0  0  0  0  0  0  0  0  0  0  0  0
   11.6289    0.4328   24.3904 C   0  0  0  0  0  0  0  0  0  0  0  0
   10.3999   -0.0583   23.9843 C   0  0  0  0  0  0  0  0  0  0  0  0
   11.4680   -1.3480   22.2782 C   0  0  0  0  0  0  0  0  0  0  0  0
   10.3009   -0.9362   22.9142 C   0  0  0  0  0  0  0  0  0  0  0  0
    8.9520   -1.3652   22.3842 C   0  0  1  0  0  0  0  0  0  0  0  0
    8.3599   -0.3691   21.4043 C   0  0  0  0  0  0  0  0  0  0  0  0
    8.6948    0.8149   21.3984 O   0  0  0  0  0  0  0  0  0  0  0  0
    7.4259   -0.8881   20.5743 N   0  0  0  0  0  0  0  0  0  0  0  0
    6.6319   -0.2181   19.6233 C   0  0  0  0  0  0  0  0  0  0  0  0
    6.8409   -0.2779   18.2473 C   0  0  0  0  0  0  0  0  0  0  0  0
    6.1618    0.4292   17.3344 N   0  0  0  0  0  0  0  0  0  0  0  0
    5.2188    1.2500   17.7745 C   0  0  0  0  0  0  0  0  0  0  0  0
    4.8708    1.4079   19.1375 C   0  0  0  0  0  0  0  0  0  0  0  0
    5.5928    0.6408   20.0944 C   0  0  0  0  0  0  0  0  0  0  0  0
    5.2148    0.7457   21.4535 C   0  0  0  0  0  0  0  0  0  0  0  0
    4.1848    1.5466   21.8425 C   0  0  0  0  0  0  0  0  0  0  0  0
    3.8207    2.2478   19.5776 C   0  0  0  0  0  0  0  0  0  0  0  0
    3.4557    2.3086   20.9226 C   0  0  0  0  0  0  0  0  0  0  0  0
    2.3807    3.0415   21.3227 N   0  0  0  0  0  0  0  0  0  0  0  0
    1.1407    2.3714   21.6777 C   0  0  1  0  0  0  0  0  0  0  0  0
    2.5716    4.3104   22.0008 C   0  0  1  0  0  0  0  0  0  0  0  0
   13.7474    0.4338   24.0409 H   0  0  0  0  0  0  0  0  0  0  0  0
   11.6854    1.1177   25.2235 H   0  0  0  0  0  0  0  0  0  0  0  0
    9.5056    0.2461   24.5078 H   0  0  0  0  0  0  0  0  0  0  0  0
   11.4228   -2.0684   21.4748 H   0  0  0  0  0  0  0  0  0  0  0  0
    9.0665   -2.3333   21.8748 H   0  0  0  0  0  0  0  0  0  0  0  0
    8.2606   -1.4767   23.2325 H   0  0  0  0  0  0  0  0  0  0  0  0
    7.2806   -1.8749   20.6451 H   0  0  0  0  0  0  0  0  0  0  0  0
    7.6099   -0.9461   17.8889 H   0  0  0  0  0  0  0  0  0  0  0  0
    4.6804    1.8372   17.0452 H   0  0  0  0  0  0  0  0  0  0  0  0
    5.7544    0.1788   22.1978 H   0  0  0  0  0  0  0  0  0  0  0  0
    3.9233    1.5950   22.8893 H   0  0  0  0  0  0  0  0  0  0  0  0
    3.2911    2.8540   18.8577 H   0  0  0  0  0  0  0  0  0  0  0  0
    0.3906    3.1196   21.9734 H   0  0  0  0  0  0  0  0  0  0  0  0
    0.7701    1.8033   20.8116 H   0  0  0  0  0  0  0  0  0  0  0  0
    1.3230    1.6835   22.5165 H   0  0  0  0  0  0  0  0  0  0  0  0
    1.5921    4.7487   22.2425 H   0  0  0  0  0  0  0  0  0  0  0  0
    3.1395    4.1483   22.9288 H   0  0  0  0  0  0  0  0  0  0  0  0
    3.1283    4.9962   21.3453 H   0  0  0  0  0  0  0  0  0  0  0  0
  1  2  1  0
  2  3  2  0
  2  6  1  0
  3  4  1  0
  3 25  1  0
  4  5  2  0
  4 26  1  0
  5  7  1  0
  5 27  1  0
  6  7  2  0
  6 28  1  0
  7  8  1  0
  8  9  1  0
  8 29  1  6
  8 30  1  0
  9 10  2  0
  9 11  1  0
 11 12  1  0
 11 31  1  0
 12 13  2  0
 12 17  1  0
 13 14  1  0
 13 32  1  0
 14 15  2  0
 15 16  1  0
 15 33  1  0
 16 17  2  0
 16 20  1  0
 17 18  1  0
 18 19  2  0
 18 34  1  0
 19 21  1  0
 19 35  1  0
 20 21  2  0
 20 36  1  0
 21 22  1  0
 22 23  1  0
 22 24  1  0
 23 37  1  1
 23 38  1  0
 23 39  1  0
 24 40  1  1
 24 41  1  0
 24 42  1  0
M  END
$$$$
