LIG(A-305)
     RDKit          3D

 33 34  0  0  1  0  0  0  0  0999 V2000
    7.4920   -0.5585   20.9080 N   0  0  0  0  0  0  0  0  0  0  0  0
   12.4069    0.7879   23.7900 N   0  0  0  0  0  0  0  0  0  0  0  0
    9.1340   -0.8203   22.6840 C   0  0  1  0  0  0  0  0  0  0  0  0
   13.2919    0.1159   23.0420 C   0  0  0  0  0  0  0  0  0  0  0  0
    5.1219    1.0184   21.5239 C   0  0  1  0  0  0  0  0  0  0  0  0
    8.5879   -0.0314   21.4910 C   0  0  0  0  0  0  0  0  0  0  0  0
    4.9429    1.3453   19.0349 C   0  0  0  0  0  0  0  0  0  0  0  0
    5.4689    1.2083   17.7659 C   0  0  0  0  0  0  0  0  0  0  0  0
    7.2449   -0.0116   18.5310 C   0  0  0  0  0  0  0  0  0  0  0  0
   11.1119    0.4608   23.6740 C   0  0  0  0  0  0  0  0  0  0  0  0
   11.5570   -1.2323   22.0801 C   0  0  0  0  0  0  0  0  0  0  0  0
   10.6229   -0.5283   22.8300 C   0  0  0  0  0  0  0  0  0  0  0  0
   12.8930   -0.9092   22.1881 C   0  0  0  0  0  0  0  0  0  0  0  0
    8.3309   -0.5653   23.9600 C   0  0  1  0  0  0  0  0  0  0  0  0
    6.6089    0.5583   17.5030 N   0  0  0  0  0  0  0  0  0  0  0  0
    9.1229    0.9956   21.0970 O   0  0  0  0  0  0  0  0  0  0  0  0
    5.6049    0.7754   20.1170 C   0  0  0  0  0  0  0  0  0  0  0  0
    6.7879    0.0554   19.8470 C   0  0  0  0  0  0  0  0  0  0  0  0
   14.0630   -1.8082   21.2601 Cl  0  0  0  0  0  0  0  0  0  0  0  0
    7.1568   -1.4375   21.2472 H   0  0  0  0  0  0  0  0  0  0  0  0
    9.0321   -1.8887   22.4424 H   0  0  0  0  0  0  0  0  0  0  0  0
   14.3386    0.3749   23.1026 H   0  0  0  0  0  0  0  0  0  0  0  0
    4.2355    1.6694   21.5006 H   0  0  0  0  0  0  0  0  0  0  0  0
    4.8592    0.0584   21.9923 H   0  0  0  0  0  0  0  0  0  0  0  0
    5.9185    1.5047   22.1061 H   0  0  0  0  0  0  0  0  0  0  0  0
    4.0234    1.8913   19.1863 H   0  0  0  0  0  0  0  0  0  0  0  0
    4.9310    1.6498   16.9400 H   0  0  0  0  0  0  0  0  0  0  0  0
    8.1591   -0.5514   18.3326 H   0  0  0  0  0  0  0  0  0  0  0  0
   10.4000    1.0036   24.2782 H   0  0  0  0  0  0  0  0  0  0  0  0
   11.2395   -2.0250   21.4188 H   0  0  0  0  0  0  0  0  0  0  0  0
    8.7591   -1.1514   24.7867 H   0  0  0  0  0  0  0  0  0  0  0  0
    8.3709    0.5051   24.2105 H   0  0  0  0  0  0  0  0  0  0  0  0
    7.2849   -0.8659   23.8009 H   0  0  0  0  0  0  0  0  0  0  0  0
  1  6  1  0
  1 18  1  0
  1 20  1  0
  2  4  2  0
  2 10  1  0
  3  6  1  0
  3 12  1  0
  3 14  1  0
  3 21  1  6
  4 13  1  0
  4 22  1  0
  5 17  1  0
  5 23  1  6
  5 24  1  0
  5 25  1  0
  6 16  2  0
  7  8  2  0
  7 17  1  0
  7 26  1  0
  8 15  1  0
  8 27  1  0
  9 15  2  0
  9 18  1  0
  9 28  1  0
 10 12  2  0
 10 29  1  0
 11 12  1  0
 11 13  2  0
 11 30  1  0
 13 19  1  0
 14 31  1  1
 14 32  1  0
 14 33  1  0
 17 18  2  0
M  END
$$$$
