LIG(A-306)
     RDKit          3D

 58 61  0  0  1  0  0  0  0  0999 V2000
   10.7480    3.1244   24.2353 O   0  0  0  0  0  0  0  0  0  0  0  0
   10.4109    1.9709   24.0427 C   0  0  0  0  0  0  0  0  0  0  0  0
    9.1794    1.5093   24.4064 N   0  0  0  0  0  0  0  0  0  0  0  0
    8.2792    2.3674   25.1607 C   0  0  1  0  0  0  0  0  0  0  0  0
    7.4042    3.3240   24.3672 C   0  0  0  0  0  0  0  0  0  0  0  0
    6.4024    3.8124   24.8841 O   0  0  0  0  0  0  0  0  0  0  0  0
    7.7728    3.6014   23.1191 N   0  0  0  0  0  0  0  0  0  0  0  0
    7.0197    4.5039   22.2668 C   0  0  1  0  0  0  0  0  0  0  0  0
   11.3111    0.9971   23.4020 C   0  0  0  0  0  0  0  0  0  0  0  0
   12.6782    1.2732   23.3478 C   0  0  0  0  0  0  0  0  0  0  0  0
   13.5503    0.3800   22.7547 C   0  0  0  0  0  0  0  0  0  0  0  0
   13.0545   -0.7902   22.2229 C   0  0  0  0  0  0  0  0  0  0  0  0
   14.1281   -1.8472   21.3562 Cl  0  0  0  0  0  0  0  0  0  0  0  0
   11.7079   -1.1033   22.2832 C   0  0  0  0  0  0  0  0  0  0  0  0
   10.8170   -0.1954   22.8549 C   0  0  0  0  0  0  0  0  0  0  0  0
    9.3176   -0.4223   22.8219 C   0  0  1  0  0  0  0  0  0  0  0  0
    8.7351    0.1213   24.1483 C   0  0  1  0  0  0  0  0  0  0  0  0
    9.0426   -0.7947   25.3233 C   0  0  1  0  0  0  0  0  0  0  0  0
    8.6776    0.3206   21.6491 C   0  0  0  0  0  0  0  0  0  0  0  0
    9.0487    1.4472   21.3142 O   0  0  0  0  0  0  0  0  0  0  0  0
    7.6793   -0.3433   21.0290 N   0  0  0  0  0  0  0  0  0  0  0  0
    6.9000    0.1054   19.9417 C   0  0  0  0  0  0  0  0  0  0  0  0
    5.7478    0.9106   20.2101 C   0  0  0  0  0  0  0  0  0  0  0  0
    4.9996    1.4039   19.0994 C   0  0  0  0  0  0  0  0  0  0  0  0
    5.4333    1.0354   17.7990 C   0  0  0  0  0  0  0  0  0  0  0  0
    6.5060    0.2939   17.5538 N   0  0  0  0  0  0  0  0  0  0  0  0
    7.2098   -0.1468   18.6070 C   0  0  0  0  0  0  0  0  0  0  0  0
    5.3197    1.2654   21.5150 C   0  0  0  0  0  0  0  0  0  0  0  0
    4.2333    2.0700   21.7112 C   0  0  0  0  0  0  0  0  0  0  0  0
    3.5285    2.5554   20.6175 C   0  0  0  0  0  0  0  0  0  0  0  0
    3.8861    2.2397   19.3377 C   0  0  0  0  0  0  0  0  0  0  0  0
    2.1143    3.5855   20.8787 S   0  0  2  0  0  0  0  0  0  0  0  0
    1.2820    2.9565   21.8658 O   0  0  0  0  0  0  0  0  0  0  0  0
    1.5350    3.8909   19.5992 O   0  0  0  0  0  0  0  0  0  0  0  0
    2.7657    5.0665   21.5546 C   0  0  1  0  0  0  0  0  0  0  0  0
    7.6124    1.7158   25.7444 H   0  0  0  0  0  0  0  0  0  0  0  0
    8.8933    2.9711   25.8452 H   0  0  0  0  0  0  0  0  0  0  0  0
    8.5992    3.1723   22.7545 H   0  0  0  0  0  0  0  0  0  0  0  0
    7.5116    4.5786   21.2857 H   0  0  0  0  0  0  0  0  0  0  0  0
    5.9981    4.1178   22.1362 H   0  0  0  0  0  0  0  0  0  0  0  0
    6.9786    5.4995   22.7330 H   0  0  0  0  0  0  0  0  0  0  0  0
   13.0571    2.1912   23.7722 H   0  0  0  0  0  0  0  0  0  0  0  0
   14.6074    0.5966   22.7088 H   0  0  0  0  0  0  0  0  0  0  0  0
   11.3497   -2.0435   21.8906 H   0  0  0  0  0  0  0  0  0  0  0  0
    9.1037   -1.4983   22.7410 H   0  0  0  0  0  0  0  0  0  0  0  0
    7.6415    0.1395   24.0308 H   0  0  0  0  0  0  0  0  0  0  0  0
    8.6113   -0.3708   26.2421 H   0  0  0  0  0  0  0  0  0  0  0  0
    8.6068   -1.7875   25.1379 H   0  0  0  0  0  0  0  0  0  0  0  0
   10.1325   -0.8885   25.4394 H   0  0  0  0  0  0  0  0  0  0  0  0
    7.4683   -1.2558   21.3796 H   0  0  0  0  0  0  0  0  0  0  0  0
    4.8534    1.3805   16.9557 H   0  0  0  0  0  0  0  0  0  0  0  0
    8.0862   -0.7445   18.4044 H   0  0  0  0  0  0  0  0  0  0  0  0
    5.8634    0.8922   22.3702 H   0  0  0  0  0  0  0  0  0  0  0  0
    3.9236    2.3276   22.7132 H   0  0  0  0  0  0  0  0  0  0  0  0
    3.3169    2.6296   18.5069 H   0  0  0  0  0  0  0  0  0  0  0  0
    1.9455    5.7728   21.7503 H   0  0  0  0  0  0  0  0  0  0  0  0
    3.2879    4.8412   22.4962 H   0  0  0  0  0  0  0  0  0  0  0  0
    3.4730    5.5149   20.8413 H   0  0  0  0  0  0  0  0  0  0  0  0
  1  2  2  0
  2  3  1  0
  2  9  1  0
  3  4  1  0
  3 17  1  0
  4  5  1  0
  4 36  1  1
  4 37  1  0
  5  6  2  0
  5  7  1  0
  7  8  1  0
  7 38  1  0
  8 39  1  6
  8 40  1  0
  8 41  1  0
  9 10  2  0
  9 15  1  0
 10 11  1  0
 10 42  1  0
 11 12  2  0
 11 43  1  0
 12 13  1  0
 12 14  1  0
 14 15  2  0
 14 44  1  0
 15 16  1  0
 16 17  1  0
 16 19  1  0
 16 45  1  6
 17 18  1  0
 17 46  1  6
 18 47  1  1
 18 48  1  0
 18 49  1  0
 19 20  2  0
 19 21  1  0
 21 22  1  0
 21 50  1  0
 22 23  2  0
 22 27  1  0
 23 24  1  0
 23 28  1  0
 24 25  2  0
 24 31  1  0
 25 26  1  0
 25 51  1  0
 26 27  2  0
 27 52  1  0
 28 29  2  0
 28 53  1  0
 29 30  1  0
 29 54  1  0
 30 31  2  0
 32 30  1  6
 31 55  1  0
 32 33  2  0
 32 34  2  0
 32 35  1  0
 35 56  1  1
 35 57  1  0
 35 58  1  0
M  END
$$$$
