LIG(A-306)
     RDKit          3D

 41 45  0  0  1  0  0  0  0  0999 V2000
   -9.6514    1.1781  -20.9922 O   0  0  0  0  0  0  0  0  0  0  0  0
   -9.3026    0.1108  -21.4523 C   0  0  0  0  0  0  0  0  0  0  0  0
   -9.9100   -0.5905  -22.6899 C   0  0  2  0  0  0  0  0  0  0  0  0
   -9.3199    0.1393  -23.9182 C   0  0  1  0  0  0  0  0  0  0  0  0
  -10.3643    0.5434  -24.9404 C   0  0  1  0  0  0  0  0  0  0  0  0
  -11.4999    1.1782  -24.3347 O   0  0  0  0  0  0  0  0  0  0  0  0
  -11.4349   -0.5588  -22.6417 C   0  0  0  0  0  0  0  0  0  0  0  0
  -12.1307    0.3616  -23.4327 C   0  0  0  0  0  0  0  0  0  0  0  0
  -13.5124    0.4600  -23.3975 C   0  0  0  0  0  0  0  0  0  0  0  0
  -14.2283   -0.3711  -22.5584 C   0  0  0  0  0  0  0  0  0  0  0  0
  -12.1729   -1.4068  -21.8147 C   0  0  0  0  0  0  0  0  0  0  0  0
  -13.5535   -1.2785  -21.7704 C   0  0  0  0  0  0  0  0  0  0  0  0
  -14.4553   -2.2233  -20.6134 Cl  0  0  0  0  0  0  0  0  0  0  0  0
   -8.3191   -0.7454  -20.9545 N   0  0  0  0  0  0  0  0  0  0  0  0
   -8.3461   -1.9821  -21.6087 C   0  0  0  0  0  0  0  0  0  0  0  0
   -7.6141   -2.9287  -21.3660 O   0  0  0  0  0  0  0  0  0  0  0  0
   -9.3292   -1.9204  -22.5412 N   0  0  0  0  0  0  0  0  0  0  0  0
   -7.3888   -0.3903  -19.9015 C   0  0  0  0  0  0  0  0  0  0  0  0
   -6.2721    0.4510  -20.2032 C   0  0  0  0  0  0  0  0  0  0  0  0
   -5.8271    0.7633  -21.5137 C   0  0  0  0  0  0  0  0  0  0  0  0
   -4.7583    1.5904  -21.7183 C   0  0  0  0  0  0  0  0  0  0  0  0
   -4.0755    2.1440  -20.6443 C   0  0  0  0  0  0  0  0  0  0  0  0
   -4.4594    1.8726  -19.3617 C   0  0  0  0  0  0  0  0  0  0  0  0
   -5.5632    1.0224  -19.1051 C   0  0  0  0  0  0  0  0  0  0  0  0
   -6.0142    0.7201  -17.7956 C   0  0  0  0  0  0  0  0  0  0  0  0
   -7.0518   -0.0583  -17.5258 N   0  0  0  0  0  0  0  0  0  0  0  0
   -7.7145   -0.5911  -18.5628 C   0  0  0  0  0  0  0  0  0  0  0  0
   -8.8043    1.0463  -23.5699 H   0  0  0  0  0  0  0  0  0  0  0  0
   -8.5957   -0.5298  -24.4059 H   0  0  0  0  0  0  0  0  0  0  0  0
   -9.9074    1.2430  -25.6558 H   0  0  0  0  0  0  0  0  0  0  0  0
  -10.7043   -0.3564  -25.4738 H   0  0  0  0  0  0  0  0  0  0  0  0
  -14.0241    1.1791  -24.0198 H   0  0  0  0  0  0  0  0  0  0  0  0
  -15.3059   -0.3107  -22.5200 H   0  0  0  0  0  0  0  0  0  0  0  0
  -11.6747   -2.1547  -21.2157 H   0  0  0  0  0  0  0  0  0  0  0  0
   -9.6273   -2.7112  -23.0758 H   0  0  0  0  0  0  0  0  0  0  0  0
   -6.3416    0.3405  -22.3640 H   0  0  0  0  0  0  0  0  0  0  0  0
   -4.4419    1.8153  -22.7260 H   0  0  0  0  0  0  0  0  0  0  0  0
   -3.2330    2.7953  -20.8242 H   0  0  0  0  0  0  0  0  0  0  0  0
   -3.9170    2.3097  -18.5364 H   0  0  0  0  0  0  0  0  0  0  0  0
   -5.4772    1.1522  -16.9641 H   0  0  0  0  0  0  0  0  0  0  0  0
   -8.5631   -1.2221  -18.3434 H   0  0  0  0  0  0  0  0  0  0  0  0
  1  2  2  0
  2  3  1  0
  2 14  1  0
  3  4  1  0
  3  7  1  0
  3 17  1  6
  4  5  1  0
  4 28  1  1
  4 29  1  0
  5  6  1  0
  5 30  1  6
  5 31  1  0
  6  8  1  0
  7  8  2  0
  7 11  1  0
  8  9  1  0
  9 10  2  0
  9 32  1  0
 10 12  1  0
 10 33  1  0
 11 12  2  0
 11 34  1  0
 12 13  1  0
 14 15  1  0
 14 18  1  0
 15 16  2  0
 15 17  1  0
 17 35  1  0
 18 19  2  0
 18 27  1  0
 19 20  1  0
 19 24  1  0
 20 21  2  0
 20 36  1  0
 21 22  1  0
 21 37  1  0
 22 23  2  0
 22 38  1  0
 23 24  1  0
 23 39  1  0
 24 25  2  0
 25 26  1  0
 25 40  1  0
 26 27  2  0
 27 41  1  0
M  END
$$$$
