LIG(A-306)
     RDKit          3D

 62 67  0  0  1  0  0  0  0  0999 V2000
    9.3070    1.1296   21.0077 O   0  0  0  0  0  0  0  0  0  0  0  0
    8.8017    0.1718   21.5778 C   0  0  0  0  0  0  0  0  0  0  0  0
    7.6284   -0.3672   21.1756 N   0  0  0  0  0  0  0  0  0  0  0  0
    6.8781    0.0770   20.0686 C   0  0  0  0  0  0  0  0  0  0  0  0
    5.7108    0.8715   20.3026 C   0  0  0  0  0  0  0  0  0  0  0  0
    5.2272    1.2029   21.5941 C   0  0  0  0  0  0  0  0  0  0  0  0
    4.1193    1.9899   21.7481 C   0  0  0  0  0  0  0  0  0  0  0  0
    3.4382    2.4780   20.6420 C   0  0  0  0  0  0  0  0  0  0  0  0
    3.8648    2.1870   19.3787 C   0  0  0  0  0  0  0  0  0  0  0  0
    5.0083    1.3772   19.1728 C   0  0  0  0  0  0  0  0  0  0  0  0
    5.5075    1.0556   17.8863 C   0  0  0  0  0  0  0  0  0  0  0  0
    6.5854    0.3118   17.6697 N   0  0  0  0  0  0  0  0  0  0  0  0
    7.2449   -0.1510   18.7409 C   0  0  0  0  0  0  0  0  0  0  0  0
    9.4496   -0.4341   22.8363 C   0  0  1  0  0  0  0  0  0  0  0  0
   10.9489   -0.1049   22.7940 C   0  0  0  0  0  0  0  0  0  0  0  0
   11.8162   -0.8760   22.0259 C   0  0  0  0  0  0  0  0  0  0  0  0
   13.1564   -0.5437   21.9682 C   0  0  0  0  0  0  0  0  0  0  0  0
   14.2078   -1.4690   20.9324 Cl  0  0  0  0  0  0  0  0  0  0  0  0
   13.6729    0.5261   22.6682 C   0  0  0  0  0  0  0  0  0  0  0  0
   12.8308    1.2869   23.4599 C   0  0  0  0  0  0  0  0  0  0  0  0
   11.4850    0.9646   23.5272 C   0  0  0  0  0  0  0  0  0  0  0  0
   10.7468    1.6982   24.4232 O   0  0  0  0  0  0  0  0  0  0  0  0
    9.3203    1.7055   24.1873 C   0  0  1  0  0  0  0  0  0  0  0  0
    8.7642    0.3105   24.0068 C   0  0  2  0  0  0  0  0  0  0  0  0
    9.2686   -1.9665   22.9497 C   0  0  1  0  0  0  0  0  0  0  0  0
    9.8100   -2.5692   24.2306 C   0  0  0  0  0  0  0  0  0  0  0  0
   10.5240   -1.9341   24.9939 O   0  0  0  0  0  0  0  0  0  0  0  0
    9.4987   -3.8470   24.5361 N   0  0  0  0  0  0  0  0  0  0  0  0
   10.3520   -4.6478   25.4201 C   0  0  1  0  0  0  0  0  0  0  0  0
    9.7218   -4.7410   26.7928 C   0  0  1  0  0  0  0  0  0  0  0  0
    8.3157   -5.1274   26.6317 N   0  0  0  0  0  0  0  0  0  0  0  0
    7.6200   -5.0416   25.4761 C   0  0  0  0  0  0  0  0  0  0  0  0
    8.2230   -4.4966   24.2032 C   0  0  2  0  0  0  0  0  0  0  0  0
    8.3884   -5.6152   23.1852 C   0  0  1  0  0  0  0  0  0  0  0  0
    6.3985   -5.4983   25.6465 N   0  0  0  0  0  0  0  0  0  0  0  0
    6.2941   -5.8971   26.9792 N   0  0  0  0  0  0  0  0  0  0  0  0
    7.4539   -5.6613   27.5325 C   0  0  0  0  0  0  0  0  0  0  0  0
    7.2670   -1.1368   21.7021 H   0  0  0  0  0  0  0  0  0  0  0  0
    5.7406    0.8287   22.4675 H   0  0  0  0  0  0  0  0  0  0  0  0
    3.7710    2.2339   22.7408 H   0  0  0  0  0  0  0  0  0  0  0  0
    2.5623    3.0940   20.7822 H   0  0  0  0  0  0  0  0  0  0  0  0
    3.3255    2.5778   18.5285 H   0  0  0  0  0  0  0  0  0  0  0  0
    4.9774    1.4399   17.0275 H   0  0  0  0  0  0  0  0  0  0  0  0
    8.1283   -0.7463   18.5632 H   0  0  0  0  0  0  0  0  0  0  0  0
   11.4440   -1.7291   21.4780 H   0  0  0  0  0  0  0  0  0  0  0  0
   14.7233    0.7678   22.5992 H   0  0  0  0  0  0  0  0  0  0  0  0
   13.2192    2.1243   24.0204 H   0  0  0  0  0  0  0  0  0  0  0  0
    8.8214    2.1773   25.0466 H   0  0  0  0  0  0  0  0  0  0  0  0
    9.1145    2.2893   23.2779 H   0  0  0  0  0  0  0  0  0  0  0  0
    8.9245   -0.2595   24.9339 H   0  0  0  0  0  0  0  0  0  0  0  0
    7.6858    0.3808   23.8014 H   0  0  0  0  0  0  0  0  0  0  0  0
    8.1933   -2.1909   22.8918 H   0  0  0  0  0  0  0  0  0  0  0  0
    9.7877   -2.4376   22.1020 H   0  0  0  0  0  0  0  0  0  0  0  0
   10.4657   -5.6585   25.0009 H   0  0  0  0  0  0  0  0  0  0  0  0
   11.3403   -4.1720   25.5034 H   0  0  0  0  0  0  0  0  0  0  0  0
   10.2486   -5.4976   27.3928 H   0  0  0  0  0  0  0  0  0  0  0  0
    9.7834   -3.7652   27.2968 H   0  0  0  0  0  0  0  0  0  0  0  0
    7.5364   -3.7459   23.7849 H   0  0  0  0  0  0  0  0  0  0  0  0
    7.4078   -6.0659   22.9723 H   0  0  0  0  0  0  0  0  0  0  0  0
    8.8131   -5.2060   22.2567 H   0  0  0  0  0  0  0  0  0  0  0  0
    9.0642   -6.3827   23.5905 H   0  0  0  0  0  0  0  0  0  0  0  0
    7.6936   -5.8639   28.5659 H   0  0  0  0  0  0  0  0  0  0  0  0
  1  2  2  0
  2  3  1  0
 14  2  1  6
  3  4  1  0
  3 38  1  0
  4  5  2  0
  4 13  1  0
  5  6  1  0
  5 10  1  0
  6  7  2  0
  6 39  1  0
  7  8  1  0
  7 40  1  0
  8  9  2  0
  8 41  1  0
  9 10  1  0
  9 42  1  0
 10 11  2  0
 11 12  1  0
 11 43  1  0
 12 13  2  0
 13 44  1  0
 14 15  1  0
 14 24  1  0
 14 25  1  0
 15 16  2  0
 15 21  1  0
 16 17  1  0
 16 45  1  0
 17 18  1  0
 17 19  2  0
 19 20  1  0
 19 46  1  0
 20 21  2  0
 20 47  1  0
 21 22  1  0
 22 23  1  0
 23 24  1  0
 23 48  1  1
 23 49  1  0
 24 50  1  1
 24 51  1  0
 25 26  1  0
 25 52  1  6
 25 53  1  0
 26 27  2  0
 26 28  1  0
 28 29  1  0
 28 33  1  0
 29 30  1  0
 29 54  1  6
 29 55  1  0
 30 31  1  0
 30 56  1  1
 30 57  1  0
 31 32  1  0
 31 37  1  0
 32 33  1  0
 32 35  2  0
 33 34  1  0
 33 58  1  6
 34 59  1  6
 34 60  1  0
 34 61  1  0
 35 36  1  0
 36 37  2  0
 37 62  1  0
M  END
$$$$
