LIG(A-305)
     RDKit          3D

 32 34  0  0  0  0  0  0  0  0999 V2000
    8.6824    0.7737   20.7791 O   0  0  0  0  0  0  0  0  0  0  0  0
    8.2564   -0.3783   20.8231 C   0  0  0  0  0  0  0  0  0  0  0  0
    8.8965   -1.4533   21.6772 C   0  0  1  0  0  0  0  0  0  0  0  0
   10.1525   -0.9962   22.3761 C   0  0  0  0  0  0  0  0  0  0  0  0
   10.1015   -0.1942   23.5081 C   0  0  0  0  0  0  0  0  0  0  0  0
   11.2645    0.2989   24.0810 C   0  0  0  0  0  0  0  0  0  0  0  0
   12.4985   -0.0171   23.5330 C   0  0  0  0  0  0  0  0  0  0  0  0
   11.3925   -1.3422   21.8551 C   0  0  0  0  0  0  0  0  0  0  0  0
   12.5395   -0.8652   22.4441 C   0  0  0  0  0  0  0  0  0  0  0  0
   14.0745   -1.4472   21.8670 Cl  0  0  0  0  0  0  0  0  0  0  0  0
    7.2194   -0.8094   20.0502 N   0  0  0  0  0  0  0  0  0  0  0  0
    6.4364    0.0556   19.3222 C   0  0  0  0  0  0  0  0  0  0  0  0
    5.4274    0.7336   19.9432 C   0  0  0  0  0  0  0  0  0  0  0  0
    4.7993    1.4355   18.9182 N   0  0  0  0  0  0  0  0  0  0  0  0
    5.4773    1.1485   17.7622 C   0  0  0  0  0  0  0  0  0  0  0  0
    6.4843    0.3165   17.9582 N   0  0  0  0  0  0  0  0  0  0  0  0
    4.8984    0.8326   21.2552 C   0  0  0  0  0  0  0  0  0  0  0  0
    3.7834    1.5876   21.4732 C   0  0  0  0  0  0  0  0  0  0  0  0
    3.1614    2.2846   20.4102 C   0  0  0  0  0  0  0  0  0  0  0  0
    3.6633    2.2135   19.1592 C   0  0  0  0  0  0  0  0  0  0  0  0
    8.1698   -1.7715   22.4392 H   0  0  0  0  0  0  0  0  0  0  0  0
    9.1483   -2.3074   21.0314 H   0  0  0  0  0  0  0  0  0  0  0  0
    9.1453    0.0486   23.9476 H   0  0  0  0  0  0  0  0  0  0  0  0
   11.2089    0.9301   24.9556 H   0  0  0  0  0  0  0  0  0  0  0  0
   13.4078    0.3912   23.9489 H   0  0  0  0  0  0  0  0  0  0  0  0
   11.4556   -1.9846   20.9892 H   0  0  0  0  0  0  0  0  0  0  0  0
    7.0212   -1.7888   20.0112 H   0  0  0  0  0  0  0  0  0  0  0  0
    5.2169    1.5575   16.7971 H   0  0  0  0  0  0  0  0  0  0  0  0
    5.3743    0.3148   22.0748 H   0  0  0  0  0  0  0  0  0  0  0  0
    3.3704    1.6542   22.4689 H   0  0  0  0  0  0  0  0  0  0  0  0
    2.2790    2.8773   20.6012 H   0  0  0  0  0  0  0  0  0  0  0  0
    3.1913    2.7531   18.3514 H   0  0  0  0  0  0  0  0  0  0  0  0
  1  2  2  0
  2  3  1  0
  2 11  1  0
  3  4  1  0
  3 21  1  1
  3 22  1  0
  4  5  2  0
  4  8  1  0
  5  6  1  0
  5 23  1  0
  6  7  2  0
  6 24  1  0
  7  9  1  0
  7 25  1  0
  8  9  2  0
  8 26  1  0
  9 10  1  0
 11 12  1  0
 11 27  1  0
 12 13  2  0
 12 16  1  0
 13 14  1  0
 13 17  1  0
 14 15  1  0
 14 20  1  0
 15 16  2  0
 15 28  1  0
 17 18  2  0
 17 29  1  0
 18 19  1  0
 18 30  1  0
 19 20  2  0
 19 31  1  0
 20 32  1  0
M  END
$$$$
