LIG(B-307)
     RDKit          3D

 38 40  0  0  0  0  0  0  0  0999 V2000
   46.8573   -0.5765  -19.6826 C   0  0  0  0  0  0  0  0  0  0  0  0
   42.1633   -2.2159  -23.5229 C   0  0  0  0  0  0  0  0  0  0  0  0
   41.0760   -1.4696  -23.0483 C   0  0  0  0  0  0  0  0  0  0  0  0
   39.8101   -1.6567  -23.5894 C   0  0  0  0  0  0  0  0  0  0  0  0
   39.5963   -2.5783  -24.6010 C   0  0  0  0  0  0  0  0  0  0  0  0
   40.6746   -3.3226  -25.0686 C   0  0  0  0  0  0  0  0  0  0  0  0
   41.9355   -3.1447  -24.5484 C   0  0  0  0  0  0  0  0  0  0  0  0
   48.1703    1.4566  -19.5410 C   0  0  0  0  0  0  0  0  0  0  0  0
   46.6672   -1.7572  -20.5961 C   0  0  0  0  0  0  0  0  0  0  0  0
   46.5455    0.8526  -17.7953 C   0  0  0  0  0  0  0  0  0  0  0  0
   46.2132   -0.3482  -18.5222 C   0  0  0  0  0  0  0  0  0  0  0  0
   45.0775   -0.5118  -22.0951 C   0  0  1  0  0  0  0  0  0  0  0  0
   43.6278   -0.9412  -22.0665 C   0  0  1  0  0  0  0  0  0  0  0  0
   44.2763   -3.2021  -22.6960 C   0  0  1  0  0  0  0  0  0  0  0  0
   45.7406   -2.7966  -22.5884 C   0  0  1  0  0  0  0  0  0  0  0  0
   47.7932    0.2965  -20.1521 N   0  0  0  0  0  0  0  0  0  0  0  0
   47.5113    1.6669  -18.3674 N   0  0  0  0  0  0  0  0  0  0  0  0
   45.9118   -1.6462  -21.6995 N   0  0  0  0  0  0  0  0  0  0  0  0
   43.4502   -2.0430  -23.0148 N   0  0  0  0  0  0  0  0  0  0  0  0
   49.0108    2.2163  -19.9893 O   0  0  0  0  0  0  0  0  0  0  0  0
   46.0553    1.2047  -16.7475 O   0  0  0  0  0  0  0  0  0  0  0  0
   47.2457   -2.7835  -20.2726 O   0  0  0  0  0  0  0  0  0  0  0  0
   37.8781   -2.8484  -25.3489 Br  0  0  0  0  0  0  0  0  0  0  0  0
   38.4763   -0.7115  -22.9696 Cl  0  0  0  0  0  0  0  0  0  0  0  0
   41.2228   -0.7468  -22.2594 H   0  0  0  0  0  0  0  0  0  0  0  0
   40.5195   -4.0505  -25.8512 H   0  0  0  0  0  0  0  0  0  0  0  0
   42.7593   -3.7269  -24.9342 H   0  0  0  0  0  0  0  0  0  0  0  0
   45.4732   -1.0405  -18.1487 H   0  0  0  0  0  0  0  0  0  0  0  0
   45.3481   -0.1903  -23.1116 H   0  0  0  0  0  0  0  0  0  0  0  0
   45.2302    0.3219  -21.3940 H   0  0  0  0  0  0  0  0  0  0  0  0
   43.3602   -1.2766  -21.0536 H   0  0  0  0  0  0  0  0  0  0  0  0
   42.9850   -0.0964  -22.3548 H   0  0  0  0  0  0  0  0  0  0  0  0
   44.1661   -3.9552  -23.4900 H   0  0  0  0  0  0  0  0  0  0  0  0
   43.9471   -3.6293  -21.7372 H   0  0  0  0  0  0  0  0  0  0  0  0
   46.3187   -3.6444  -22.1920 H   0  0  0  0  0  0  0  0  0  0  0  0
   46.1139   -2.5342  -23.5893 H   0  0  0  0  0  0  0  0  0  0  0  0
   48.2488    0.0675  -21.0203 H   0  0  0  0  0  0  0  0  0  0  0  0
   47.7356    2.4968  -17.8595 H   0  0  0  0  0  0  0  0  0  0  0  0
  1  9  1  0
  1 11  2  0
  1 16  1  0
  2  3  2  0
  2  7  1  0
  2 19  1  0
  3  4  1  0
  3 25  1  0
  4  5  2  0
  4 24  1  0
  5  6  1  0
  5 23  1  0
  6  7  2  0
  6 26  1  0
  7 27  1  0
  8 16  1  0
  8 17  1  0
  8 20  2  0
  9 18  1  0
  9 22  2  0
 10 11  1  0
 10 17  1  0
 10 21  2  0
 11 28  1  0
 12 13  1  0
 12 18  1  0
 12 29  1  6
 12 30  1  0
 13 19  1  0
 13 31  1  1
 13 32  1  0
 14 15  1  0
 14 19  1  0
 14 33  1  6
 14 34  1  0
 15 18  1  0
 15 35  1  1
 15 36  1  0
 16 37  1  0
 17 38  1  0
M  END
$$$$
