LIG(A-306)
     RDKit          3D

 44 47  0  0  1  0  0  0  0  0999 V2000
    9.0579    0.9291   21.2153 O   0  0  0  0  0  0  0  0  0  0  0  0
    8.5544   -0.1618   21.4926 C   0  0  0  0  0  0  0  0  0  0  0  0
    9.1492   -1.0459   22.6051 C   0  0  1  0  0  0  0  0  0  0  0  0
   10.5711   -0.5912   22.8761 C   0  0  0  0  0  0  0  0  0  0  0  0
   11.6216   -1.1712   22.1702 C   0  0  0  0  0  0  0  0  0  0  0  0
   12.9207   -0.8047   22.4627 C   0  0  0  0  0  0  0  0  0  0  0  0
   14.2246   -1.5261   21.5585 Cl  0  0  0  0  0  0  0  0  0  0  0  0
   13.2063    0.1238   23.4432 C   0  0  0  0  0  0  0  0  0  0  0  0
   12.1638    0.6918   24.1502 C   0  0  0  0  0  0  0  0  0  0  0  0
   10.8387    0.3444   23.8886 C   0  0  0  0  0  0  0  0  0  0  0  0
    9.7362    0.9241   24.7465 C   0  0  1  0  0  0  0  0  0  0  0  0
    8.3535    0.4080   24.3828 C   0  0  1  0  0  0  0  0  0  0  0  0
    8.3888   -0.9655   23.8655 N   0  0  1  0  0  0  0  0  0  0  0  0
    7.0552   -1.5698   23.8352 C   0  0  1  0  0  0  0  0  0  0  0  0
    7.4867   -0.6795   20.8409 N   0  0  0  0  0  0  0  0  0  0  0  0
    6.7476   -0.0964   19.7938 C   0  0  0  0  0  0  0  0  0  0  0  0
    5.6574    0.7707   20.1203 C   0  0  0  0  0  0  0  0  0  0  0  0
    5.2046    1.0061   21.4451 C   0  0  0  0  0  0  0  0  0  0  0  0
    4.1456    1.8349   21.6888 C   0  0  0  0  0  0  0  0  0  0  0  0
    3.4893    2.4722   20.6435 C   0  0  0  0  0  0  0  0  0  0  0  0
    3.8910    2.2837   19.3515 C   0  0  0  0  0  0  0  0  0  0  0  0
    4.9811    1.4278   19.0539 C   0  0  0  0  0  0  0  0  0  0  0  0
    5.4320    1.1784   17.7353 C   0  0  0  0  0  0  0  0  0  0  0  0
    6.4369    0.3693   17.4324 N   0  0  0  0  0  0  0  0  0  0  0  0
    7.0632   -0.2463   18.4426 C   0  0  0  0  0  0  0  0  0  0  0  0
    9.1686   -2.0880   22.2535 H   0  0  0  0  0  0  0  0  0  0  0  0
   11.4223   -1.9018   21.4001 H   0  0  0  0  0  0  0  0  0  0  0  0
   14.2283    0.4019   23.6544 H   0  0  0  0  0  0  0  0  0  0  0  0
   12.3792    1.4184   24.9196 H   0  0  0  0  0  0  0  0  0  0  0  0
    9.9394    0.6664   25.7964 H   0  0  0  0  0  0  0  0  0  0  0  0
    9.7420    2.0178   24.6296 H   0  0  0  0  0  0  0  0  0  0  0  0
    7.7196    0.4311   25.2815 H   0  0  0  0  0  0  0  0  0  0  0  0
    7.9222    1.0648   23.6129 H   0  0  0  0  0  0  0  0  0  0  0  0
    8.9131   -1.4944   24.5328 H   0  0  0  0  0  0  0  0  0  0  0  0
    7.1255   -2.5950   23.4428 H   0  0  0  0  0  0  0  0  0  0  0  0
    6.6410   -1.5949   24.8540 H   0  0  0  0  0  0  0  0  0  0  0  0
    6.3971   -0.9732   23.1863 H   0  0  0  0  0  0  0  0  0  0  0  0
    7.1867   -1.5856   21.1392 H   0  0  0  0  0  0  0  0  0  0  0  0
    5.7042    0.5235   22.2721 H   0  0  0  0  0  0  0  0  0  0  0  0
    3.8156    1.9959   22.7044 H   0  0  0  0  0  0  0  0  0  0  0  0
    2.6536    3.1229   20.8542 H   0  0  0  0  0  0  0  0  0  0  0  0
    3.3740    2.7909   18.5504 H   0  0  0  0  0  0  0  0  0  0  0  0
    4.9244    1.6795   16.9243 H   0  0  0  0  0  0  0  0  0  0  0  0
    7.8766   -0.9112   18.1925 H   0  0  0  0  0  0  0  0  0  0  0  0
  1  2  2  0
  2  3  1  0
  2 15  1  0
  3  4  1  0
  3 13  1  0
  3 26  1  6
  4  5  2  0
  4 10  1  0
  5  6  1  0
  5 27  1  0
  6  7  1  0
  6  8  2  0
  8  9  1  0
  8 28  1  0
  9 10  2  0
  9 29  1  0
 10 11  1  0
 11 12  1  0
 11 30  1  1
 11 31  1  0
 12 13  1  0
 12 32  1  1
 12 33  1  0
 13 14  1  0
 13 34  1  1
 14 35  1  6
 14 36  1  0
 14 37  1  0
 15 16  1  0
 15 38  1  0
 16 17  2  0
 16 25  1  0
 17 18  1  0
 17 22  1  0
 18 19  2  0
 18 39  1  0
 19 20  1  0
 19 40  1  0
 20 21  2  0
 20 41  1  0
 21 22  1  0
 21 42  1  0
 22 23  2  0
 23 24  1  0
 23 43  1  0
 24 25  2  0
 25 44  1  0
M  CHG  1  13   1
M  END
$$$$
