LIG(A-306)
     RDKit          3D

 42 46  0  0  1  0  0  0  0  0999 V2000
   -9.4771    0.4807  -21.2490 O   0  0  0  0  0  0  0  0  0  0  0  0
   -8.9500   -0.5502  -21.6192 C   0  0  0  0  0  0  0  0  0  0  0  0
   -9.3190   -1.3604  -22.8617 C   0  0  2  0  0  0  0  0  0  0  0  0
   -8.6238   -0.6971  -24.0752 C   0  0  1  0  0  0  0  0  0  0  0  0
   -9.4574    0.4255  -24.6556 C   0  0  1  0  0  0  0  0  0  0  0  0
  -10.7430   -0.0540  -25.0744 O   0  0  0  0  0  0  0  0  0  0  0  0
  -10.8414   -1.4158  -23.0520 C   0  0  0  0  0  0  0  0  0  0  0  0
  -11.4523   -0.7311  -24.1127 C   0  0  0  0  0  0  0  0  0  0  0  0
  -12.8295   -0.6996  -24.2601 C   0  0  0  0  0  0  0  0  0  0  0  0
  -13.6259   -1.3515  -23.3388 C   0  0  0  0  0  0  0  0  0  0  0  0
  -11.6600   -2.0908  -22.1462 C   0  0  0  0  0  0  0  0  0  0  0  0
  -13.0351   -2.0343  -22.2991 C   0  0  0  0  0  0  0  0  0  0  0  0
  -14.0497   -2.8406  -21.1371 Cl  0  0  0  0  0  0  0  0  0  0  0  0
   -7.8908   -1.2086  -20.9799 N   0  0  0  0  0  0  0  0  0  0  0  0
   -7.6130   -2.4561  -21.5421 C   0  0  0  0  0  0  0  0  0  0  0  0
   -6.6475   -3.1469  -21.2461 O   0  0  0  0  0  0  0  0  0  0  0  0
   -8.6658   -2.7316  -22.5808 C   0  0  2  0  0  0  0  0  0  0  0  0
   -7.1007   -0.6154  -19.9315 C   0  0  0  0  0  0  0  0  0  0  0  0
   -6.0970    0.3349  -20.2734 C   0  0  0  0  0  0  0  0  0  0  0  0
   -5.6236    0.5663  -21.5914 C   0  0  0  0  0  0  0  0  0  0  0  0
   -4.6654    1.5090  -21.8420 C   0  0  0  0  0  0  0  0  0  0  0  0
   -4.1290    2.2645  -20.8076 C   0  0  0  0  0  0  0  0  0  0  0  0
   -4.5417    2.0715  -19.5205 C   0  0  0  0  0  0  0  0  0  0  0  0
   -5.5319    1.1028  -19.2163 C   0  0  0  0  0  0  0  0  0  0  0  0
   -5.9977    0.8536  -17.9010 C   0  0  0  0  0  0  0  0  0  0  0  0
   -6.9335   -0.0371  -17.5935 N   0  0  0  0  0  0  0  0  0  0  0  0
   -7.4674   -0.7457  -18.5959 C   0  0  0  0  0  0  0  0  0  0  0  0
   -7.6543   -0.2902  -23.7516 H   0  0  0  0  0  0  0  0  0  0  0  0
   -8.4610   -1.4584  -24.8523 H   0  0  0  0  0  0  0  0  0  0  0  0
   -9.5952    1.2040  -23.8909 H   0  0  0  0  0  0  0  0  0  0  0  0
   -8.9324    0.8524  -25.5229 H   0  0  0  0  0  0  0  0  0  0  0  0
  -13.2767   -0.1699  -25.0882 H   0  0  0  0  0  0  0  0  0  0  0  0
  -14.7015   -1.3260  -23.4329 H   0  0  0  0  0  0  0  0  0  0  0  0
  -11.2250   -2.6525  -21.3328 H   0  0  0  0  0  0  0  0  0  0  0  0
   -8.2094   -3.1371  -23.4958 H   0  0  0  0  0  0  0  0  0  0  0  0
   -9.4112   -3.4434  -22.1963 H   0  0  0  0  0  0  0  0  0  0  0  0
   -6.0269   -0.0117  -22.4097 H   0  0  0  0  0  0  0  0  0  0  0  0
   -4.3225    1.6676  -22.8537 H   0  0  0  0  0  0  0  0  0  0  0  0
   -3.3790    3.0111  -21.0231 H   0  0  0  0  0  0  0  0  0  0  0  0
   -4.1098    2.6624  -18.7263 H   0  0  0  0  0  0  0  0  0  0  0  0
   -5.5625    1.4262  -17.0952 H   0  0  0  0  0  0  0  0  0  0  0  0
   -8.2336   -1.4666  -18.3514 H   0  0  0  0  0  0  0  0  0  0  0  0
  1  2  2  0
  3  2  1  1
  2 14  1  0
  3  4  1  0
  3  7  1  0
  3 17  1  0
  4  5  1  0
  4 28  1  1
  4 29  1  0
  5  6  1  0
  5 30  1  1
  5 31  1  0
  6  8  1  0
  7  8  2  0
  7 11  1  0
  8  9  1  0
  9 10  2  0
  9 32  1  0
 10 12  1  0
 10 33  1  0
 11 12  2  0
 11 34  1  0
 12 13  1  0
 14 15  1  0
 14 18  1  0
 15 16  2  0
 15 17  1  0
 17 35  1  6
 17 36  1  0
 18 19  2  0
 18 27  1  0
 19 20  1  0
 19 24  1  0
 20 21  2  0
 20 37  1  0
 21 22  1  0
 21 38  1  0
 22 23  2  0
 22 39  1  0
 23 24  1  0
 23 40  1  0
 24 25  2  0
 25 26  1  0
 25 41  1  0
 26 27  2  0
 27 42  1  0
M  END
$$$$
