LIG(A-305)
     RDKit          3D

 35 37  0  0  1  0  0  0  0  0999 V2000
    6.6878    0.3034   17.7983 N   0  0  0  0  0  0  0  0  0  0  0  0
    5.8769    0.6945   20.4593 C   0  0  0  0  0  0  0  0  0  0  0  0
   13.8672   -1.7200   23.7130 C   0  0  1  0  0  0  0  0  0  0  0  0
   11.2951   -0.0512   22.6490 C   0  0  1  0  0  0  0  0  0  0  0  0
    5.0928    1.1174   19.3913 C   0  0  0  0  0  0  0  0  0  0  0  0
    9.0360    0.2517   21.5882 C   0  0  0  0  0  0  0  0  0  0  0  0
    7.0869    0.0385   20.1543 C   0  0  0  0  0  0  0  0  0  0  0  0
    7.4429   -0.1245   18.8143 C   0  0  0  0  0  0  0  0  0  0  0  0
   12.0002    0.0599   24.0030 C   0  0  1  0  0  0  0  0  0  0  0  0
   12.6112   -2.0471   22.9701 C   0  0  2  0  0  0  0  0  0  0  0  0
   12.1431   -1.0722   21.8880 C   0  0  2  0  0  0  0  0  0  0  0  0
   12.5273   -1.3510   24.2640 C   0  0  1  0  0  0  0  0  0  0  0  0
    5.4580    0.9795   21.8813 C   0  0  1  0  0  0  0  0  0  0  0  0
    7.9290   -0.4074   21.2003 N   0  0  0  0  0  0  0  0  0  0  0  0
    9.4119    1.2997   21.0781 O   0  0  0  0  0  0  0  0  0  0  0  0
    9.8071   -0.4022   22.7201 C   0  0  2  0  0  0  0  0  0  0  0  0
    5.5288    0.9043   18.0983 C   0  0  0  0  0  0  0  0  0  0  0  0
   14.4565   -2.5214   24.1825 H   0  0  0  0  0  0  0  0  0  0  0  0
   14.5445   -0.9390   23.3370 H   0  0  0  0  0  0  0  0  0  0  0  0
   11.3905    0.9176   22.1369 H   0  0  0  0  0  0  0  0  0  0  0  0
    4.1486    1.6094   19.5721 H   0  0  0  0  0  0  0  0  0  0  0  0
    8.3747   -0.6212   18.5875 H   0  0  0  0  0  0  0  0  0  0  0  0
   12.8274    0.7834   23.9546 H   0  0  0  0  0  0  0  0  0  0  0  0
   11.2925    0.3642   24.7882 H   0  0  0  0  0  0  0  0  0  0  0  0
   12.2925   -3.0974   22.8983 H   0  0  0  0  0  0  0  0  0  0  0  0
   13.0018   -0.5837   21.4042 H   0  0  0  0  0  0  0  0  0  0  0  0
   11.5407   -1.5916   21.1282 H   0  0  0  0  0  0  0  0  0  0  0  0
   12.1480   -1.8921   25.1435 H   0  0  0  0  0  0  0  0  0  0  0  0
    4.5064    1.5312   21.8802 H   0  0  0  0  0  0  0  0  0  0  0  0
    5.3309    0.0307   22.4232 H   0  0  0  0  0  0  0  0  0  0  0  0
    6.2316    1.5842   22.3772 H   0  0  0  0  0  0  0  0  0  0  0  0
    7.6895   -1.2545   21.6747 H   0  0  0  0  0  0  0  0  0  0  0  0
    9.4010   -0.0520   23.6806 H   0  0  0  0  0  0  0  0  0  0  0  0
    9.6920   -1.4939   22.6495 H   0  0  0  0  0  0  0  0  0  0  0  0
    4.9017    1.2402   17.2857 H   0  0  0  0  0  0  0  0  0  0  0  0
  1  8  1  0
  1 17  2  0
  2  5  2  0
  2  7  1  0
  2 13  1  0
  3 10  1  0
  3 12  1  0
  3 18  1  1
  3 19  1  0
  4  9  1  0
  4 11  1  0
  4 16  1  0
  4 20  1  6
  5 17  1  0
  5 21  1  0
  6 14  1  0
  6 15  2  0
  6 16  1  0
  7  8  2  0
  7 14  1  0
  8 22  1  0
  9 12  1  0
  9 23  1  6
  9 24  1  0
 10 11  1  0
 10 12  1  0
 10 25  1  1
 11 26  1  6
 11 27  1  0
 12 28  1  1
 13 29  1  6
 13 30  1  0
 13 31  1  0
 14 32  1  0
 16 33  1  1
 16 34  1  0
 17 35  1  0
M  END
$$$$
