LIG(A-306)
     RDKit          3D

 41 43  0  0  0  0  0  0  0  0999 V2000
   14.1177   -1.5266   21.5324 Cl  0  0  0  0  0  0  0  0  0  0  0  0
   12.8592   -0.8374   22.5201 C   0  0  0  0  0  0  0  0  0  0  0  0
   13.1797    0.1536   23.4275 C   0  0  0  0  0  0  0  0  0  0  0  0
   12.1601    0.7372   24.1593 C   0  0  0  0  0  0  0  0  0  0  0  0
   10.8427    0.3459   23.9585 C   0  0  0  0  0  0  0  0  0  0  0  0
   11.5568   -1.2578   22.3323 C   0  0  0  0  0  0  0  0  0  0  0  0
   10.5263   -0.6414   23.0350 C   0  0  0  0  0  0  0  0  0  0  0  0
    9.0860   -0.9828   22.7251 C   0  0  1  0  0  0  0  0  0  0  0  0
    8.4910   -0.1222   21.6283 C   0  0  0  0  0  0  0  0  0  0  0  0
    9.0141    0.9386   21.2751 O   0  0  0  0  0  0  0  0  0  0  0  0
    7.3627   -0.6197   21.0779 N   0  0  0  0  0  0  0  0  0  0  0  0
    6.6336   -0.1038   19.9908 C   0  0  0  0  0  0  0  0  0  0  0  0
    7.0377   -0.2360   18.6606 C   0  0  0  0  0  0  0  0  0  0  0  0
    6.4345    0.3464   17.6154 N   0  0  0  0  0  0  0  0  0  0  0  0
    5.3786    1.1090   17.8645 C   0  0  0  0  0  0  0  0  0  0  0  0
    5.4742    0.6911   20.2566 C   0  0  0  0  0  0  0  0  0  0  0  0
    4.8393    1.3287   19.1564 C   0  0  0  0  0  0  0  0  0  0  0  0
    3.6885    2.1191   19.3914 C   0  0  0  0  0  0  0  0  0  0  0  0
    3.1773    2.2518   20.6472 C   0  0  0  0  0  0  0  0  0  0  0  0
    4.9092    0.8537   21.5488 C   0  0  0  0  0  0  0  0  0  0  0  0
    3.7715    1.6052   21.7370 C   0  0  0  0  0  0  0  0  0  0  0  0
    3.1202    1.6606   23.0829 C   0  0  0  0  0  0  0  0  0  0  0  0
    3.7519    1.3910   24.1008 O   0  0  0  0  0  0  0  0  0  0  0  0
    1.8189    1.9444   23.1118 N   0  0  0  0  0  0  0  0  0  0  0  0
    0.9863    1.6080   24.2509 C   0  0  1  0  0  0  0  0  0  0  0  0
   14.2045    0.4665   23.5631 H   0  0  0  0  0  0  0  0  0  0  0  0
   12.3898    1.4995   24.8891 H   0  0  0  0  0  0  0  0  0  0  0  0
   10.0543    0.8156   24.5280 H   0  0  0  0  0  0  0  0  0  0  0  0
   11.3396   -2.0608   21.6435 H   0  0  0  0  0  0  0  0  0  0  0  0
    9.0364   -2.0353   22.4092 H   0  0  0  0  0  0  0  0  0  0  0  0
    8.4898   -0.8457   23.6392 H   0  0  0  0  0  0  0  0  0  0  0  0
    7.0020   -1.4550   21.4928 H   0  0  0  0  0  0  0  0  0  0  0  0
    7.9005   -0.8536   18.4592 H   0  0  0  0  0  0  0  0  0  0  0  0
    4.8983    1.5945   17.0280 H   0  0  0  0  0  0  0  0  0  0  0  0
    3.2098    2.6231   18.5648 H   0  0  0  0  0  0  0  0  0  0  0  0
    2.3015    2.8642   20.8038 H   0  0  0  0  0  0  0  0  0  0  0  0
    5.3796    0.3800   22.3977 H   0  0  0  0  0  0  0  0  0  0  0  0
    1.4042    2.4024   22.3255 H   0  0  0  0  0  0  0  0  0  0  0  0
   -0.0470    1.9325   24.0591 H   0  0  0  0  0  0  0  0  0  0  0  0
    1.0052    0.5197   24.4101 H   0  0  0  0  0  0  0  0  0  0  0  0
    1.3696    2.1164   25.1480 H   0  0  0  0  0  0  0  0  0  0  0  0
  1  2  1  0
  2  3  2  0
  2  6  1  0
  3  4  1  0
  3 26  1  0
  4  5  2  0
  4 27  1  0
  5  7  1  0
  5 28  1  0
  6  7  2  0
  6 29  1  0
  7  8  1  0
  8  9  1  0
  8 30  1  6
  8 31  1  0
  9 10  2  0
  9 11  1  0
 11 12  1  0
 11 32  1  0
 12 13  2  0
 12 16  1  0
 13 14  1  0
 13 33  1  0
 14 15  2  0
 15 17  1  0
 15 34  1  0
 16 17  2  0
 16 20  1  0
 17 18  1  0
 18 19  2  0
 18 35  1  0
 19 21  1  0
 19 36  1  0
 20 21  2  0
 20 37  1  0
 21 22  1  0
 22 23  2  0
 22 24  1  0
 24 25  1  0
 24 38  1  0
 25 39  1  6
 25 40  1  0
 25 41  1  0
M  END
$$$$
