LIG(A-305)
     RDKit          3D

 17 17  0  0  0  0  0  0  0  0999 V2000
    9.5279    5.1077   22.9999 N   0  0  0  0  0  0  0  0  0  0  0  0
   12.6112    1.0530   23.1499 C   0  0  0  0  0  0  0  0  0  0  0  0
   10.3681    5.1649   25.3049 O   0  0  0  0  0  0  0  0  0  0  0  0
   11.3713    1.1219   23.7910 C   0  0  0  0  0  0  0  0  0  0  0  0
   10.8302    2.3959   24.0540 C   0  0  0  0  0  0  0  0  0  0  0  0
   11.5041    3.5819   23.6879 C   0  0  0  0  0  0  0  0  0  0  0  0
   12.7500    3.4490   23.0578 C   0  0  0  0  0  0  0  0  0  0  0  0
   13.3091    2.2010   22.7898 C   0  0  0  0  0  0  0  0  0  0  0  0
   11.7339    6.1159   23.5097 O   0  0  0  0  0  0  0  0  0  0  0  0
   10.8440    5.1069   23.9778 S   0  0  1  0  0  0  0  0  0  0  0  0
   13.4103   -0.6990   22.6919 Br  0  0  0  0  0  0  0  0  0  0  0  0
    9.6038    5.8541   22.3387 H   0  0  0  0  0  0  0  0  0  0  0  0
    9.4732    4.2360   22.5130 H   0  0  0  0  0  0  0  0  0  0  0  0
   10.8430    0.2243   24.0767 H   0  0  0  0  0  0  0  0  0  0  0  0
    9.8732    2.4675   24.5494 H   0  0  0  0  0  0  0  0  0  0  0  0
   13.2914    4.3388   22.7723 H   0  0  0  0  0  0  0  0  0  0  0  0
   14.2729    2.1260   22.3082 H   0  0  0  0  0  0  0  0  0  0  0  0
 10  1  1  6
  1 12  1  0
  1 13  1  0
  2  4  2  0
  2  8  1  0
  2 11  1  0
  3 10  2  0
  4  5  1  0
  4 14  1  0
  5  6  2  0
  5 15  1  0
  6  7  1  0
  6 10  1  0
  7  8  2  0
  7 16  1  0
  8 17  1  0
  9 10  2  0
M  END
$$$$
