LIG(A-305)
     RDKit          3D

 37 40  0  0  0  0  0  0  0  0999 V2000
    8.8786    0.6984   21.1845 O   0  0  0  0  0  0  0  0  0  0  0  0
    8.4305   -0.4396   21.2795 C   0  0  0  0  0  0  0  0  0  0  0  0
    8.9336   -1.4106   22.3285 C   0  0  1  0  0  0  0  0  0  0  0  0
   10.3527   -1.0158   22.6642 C   0  0  0  0  0  0  0  0  0  0  0  0
   10.6259   -0.0708   23.6552 C   0  0  0  0  0  0  0  0  0  0  0  0
    9.6951    0.5403   24.4633 O   0  0  0  0  0  0  0  0  0  0  0  0
   10.4294    1.4132   25.3682 C   0  0  0  0  0  0  0  0  0  0  0  0
   11.8893    1.4451   24.9140 C   0  0  0  0  0  0  0  0  0  0  0  0
   11.9210    0.3640   23.8700 C   0  0  0  0  0  0  0  0  0  0  0  0
   12.9718   -0.1571   23.1248 C   0  0  0  0  0  0  0  0  0  0  0  0
   11.4125   -1.5409   21.9301 C   0  0  0  0  0  0  0  0  0  0  0  0
   12.7006   -1.1140   22.1729 C   0  0  0  0  0  0  0  0  0  0  0  0
   14.0154   -1.8202   21.2757 Cl  0  0  0  0  0  0  0  0  0  0  0  0
    7.5723   -0.9575   20.3997 N   0  0  0  0  0  0  0  0  0  0  0  0
    6.6383   -0.3454   19.5528 C   0  0  0  0  0  0  0  0  0  0  0  0
    5.6114    0.5347   20.0270 C   0  0  0  0  0  0  0  0  0  0  0  0
    5.1476    0.5568   21.3691 C   0  0  0  0  0  0  0  0  0  0  0  0
    4.0308    1.2649   21.7152 C   0  0  0  0  0  0  0  0  0  0  0  0
    3.3317    1.9930   20.7683 C   0  0  0  0  0  0  0  0  0  0  0  0
    3.7525    2.0339   19.4723 C   0  0  0  0  0  0  0  0  0  0  0  0
    4.8984    1.3068   19.0641 C   0  0  0  0  0  0  0  0  0  0  0  0
    5.3041    1.2127   17.7150 C   0  0  0  0  0  0  0  0  0  0  0  0
    6.2840    0.4436   17.2879 N   0  0  0  0  0  0  0  0  0  0  0  0
    6.8990   -0.3274   18.1888 C   0  0  0  0  0  0  0  0  0  0  0  0
    8.3038   -1.3519   23.2284 H   0  0  0  0  0  0  0  0  0  0  0  0
    8.9123   -2.4366   21.9324 H   0  0  0  0  0  0  0  0  0  0  0  0
   10.0156    1.9450   26.2122 H   0  0  0  0  0  0  0  0  0  0  0  0
   12.6921    2.0815   25.2559 H   0  0  0  0  0  0  0  0  0  0  0  0
   13.9837    0.1827   23.2896 H   0  0  0  0  0  0  0  0  0  0  0  0
   11.2253   -2.2840   21.1690 H   0  0  0  0  0  0  0  0  0  0  0  0
    7.6001   -1.9549   20.3327 H   0  0  0  0  0  0  0  0  0  0  0  0
    5.6850    0.0062   22.1271 H   0  0  0  0  0  0  0  0  0  0  0  0
    3.6898    1.2561   22.7400 H   0  0  0  0  0  0  0  0  0  0  0  0
    2.4436    2.5342   21.0592 H   0  0  0  0  0  0  0  0  0  0  0  0
    3.2082    2.6253   18.7508 H   0  0  0  0  0  0  0  0  0  0  0  0
    4.7768    1.8103   16.9862 H   0  0  0  0  0  0  0  0  0  0  0  0
    7.6659   -0.9950   17.8247 H   0  0  0  0  0  0  0  0  0  0  0  0
  1  2  2  0
  2  3  1  0
  2 14  1  0
  3  4  1  0
  3 25  1  1
  3 26  1  0
  4  5  2  0
  4 11  1  0
  5  6  1  0
  5  9  1  0
  6  7  1  0
  7  8  2  0
  7 27  1  0
  8  9  1  0
  8 28  1  0
  9 10  2  0
 10 12  1  0
 10 29  1  0
 11 12  2  0
 11 30  1  0
 12 13  1  0
 14 15  1  0
 14 31  1  0
 15 16  2  0
 15 24  1  0
 16 17  1  0
 16 21  1  0
 17 18  2  0
 17 32  1  0
 18 19  1  0
 18 33  1  0
 19 20  2  0
 19 34  1  0
 20 21  1  0
 20 35  1  0
 21 22  2  0
 22 23  1  0
 22 36  1  0
 23 24  2  0
 24 37  1  0
M  END
$$$$
