LIG(A-306)
     RDKit          3D

 39 42  0  0  1  0  0  0  0  0999 V2000
   13.9755   -1.7318   21.3596 Cl  0  0  0  0  0  0  0  0  0  0  0  0
   12.7427   -1.0707   22.3820 C   0  0  0  0  0  0  0  0  0  0  0  0
   13.0732   -0.1651   23.3677 C   0  0  0  0  0  0  0  0  0  0  0  0
   14.3796    0.0564   23.6470 F   0  0  0  0  0  0  0  0  0  0  0  0
   12.1145    0.4584   24.1263 C   0  0  0  0  0  0  0  0  0  0  0  0
   11.4175   -1.3939   22.1662 C   0  0  0  0  0  0  0  0  0  0  0  0
   10.4098   -0.7936   22.9189 C   0  0  0  0  0  0  0  0  0  0  0  0
   10.7863    0.1391   23.8985 C   0  0  0  0  0  0  0  0  0  0  0  0
    9.8866    0.7751   24.7251 O   0  0  0  0  0  0  0  0  0  0  0  0
    8.4812    0.5634   24.4607 C   0  0  1  0  0  0  0  0  0  0  0  0
    8.1776   -0.8396   23.9955 C   0  0  1  0  0  0  0  0  0  0  0  0
    8.9487   -1.1342   22.6942 C   0  0  1  0  0  0  0  0  0  0  0  0
    8.4710   -0.2771   21.5208 C   0  0  0  0  0  0  0  0  0  0  0  0
    9.1982    0.5571   20.9879 O   0  0  0  0  0  0  0  0  0  0  0  0
    7.1624   -0.4117   21.2090 N   0  0  0  0  0  0  0  0  0  0  0  0
    6.4759   -0.0461   20.0390 C   0  0  0  0  0  0  0  0  0  0  0  0
    6.9874   -0.0962   18.7414 C   0  0  0  0  0  0  0  0  0  0  0  0
    6.4384    0.4722   17.6584 N   0  0  0  0  0  0  0  0  0  0  0  0
    5.3347    1.1774   17.8386 C   0  0  0  0  0  0  0  0  0  0  0  0
    5.2840    0.7211   20.2289 C   0  0  0  0  0  0  0  0  0  0  0  0
    4.7380    0.9911   21.5134 C   0  0  0  0  0  0  0  0  0  0  0  0
    3.7119    1.8732   21.6178 C   0  0  0  0  0  0  0  0  0  0  0  0
    3.2328    2.1601   22.8562 F   0  0  0  0  0  0  0  0  0  0  0  0
    4.7118    1.3671   19.0955 C   0  0  0  0  0  0  0  0  0  0  0  0
    3.6247    2.2525   19.2898 C   0  0  0  0  0  0  0  0  0  0  0  0
    3.1397    2.5025   20.5405 C   0  0  0  0  0  0  0  0  0  0  0  0
   12.3889    1.1797   24.8819 H   0  0  0  0  0  0  0  0  0  0  0  0
   11.1597   -2.1181   21.4076 H   0  0  0  0  0  0  0  0  0  0  0  0
    7.9168    0.7569   25.3849 H   0  0  0  0  0  0  0  0  0  0  0  0
    8.1603    1.2693   23.6805 H   0  0  0  0  0  0  0  0  0  0  0  0
    8.4835   -1.5564   24.7718 H   0  0  0  0  0  0  0  0  0  0  0  0
    7.0977   -0.9379   23.8107 H   0  0  0  0  0  0  0  0  0  0  0  0
    8.8481   -2.1997   22.4401 H   0  0  0  0  0  0  0  0  0  0  0  0
    6.5983   -0.8353   21.9179 H   0  0  0  0  0  0  0  0  0  0  0  0
    7.9082   -0.6419   18.5968 H   0  0  0  0  0  0  0  0  0  0  0  0
    4.8802    1.6372   16.9734 H   0  0  0  0  0  0  0  0  0  0  0  0
    5.1332    0.5023   22.3916 H   0  0  0  0  0  0  0  0  0  0  0  0
    3.1730    2.7368   18.4367 H   0  0  0  0  0  0  0  0  0  0  0  0
    2.3161    3.1869   20.6810 H   0  0  0  0  0  0  0  0  0  0  0  0
  1  2  1  0
  2  3  2  0
  2  6  1  0
  3  4  1  0
  3  5  1  0
  5  8  2  0
  5 27  1  0
  6  7  2  0
  6 28  1  0
  7  8  1  0
  7 12  1  0
  8  9  1  0
  9 10  1  0
 10 11  1  0
 10 29  1  1
 10 30  1  0
 11 12  1  0
 11 31  1  1
 11 32  1  0
 12 13  1  0
 12 33  1  6
 13 14  2  0
 13 15  1  0
 15 16  1  0
 15 34  1  0
 16 17  2  0
 16 20  1  0
 17 18  1  0
 17 35  1  0
 18 19  2  0
 19 24  1  0
 19 36  1  0
 20 21  2  0
 20 24  1  0
 21 22  1  0
 21 37  1  0
 22 23  1  0
 22 26  2  0
 24 25  2  0
 25 26  1  0
 25 38  1  0
 26 39  1  0
M  END
$$$$
