LIG(A-305)
     RDKit          3D

 37 38  0  0  0  0  0  0  0  0999 V2000
    7.0417   -2.5163   25.9147 N   0  0  0  0  0  0  0  0  0  0  0  0
    6.0791   -0.3482   26.5378 C   0  0  0  0  0  0  0  0  0  0  0  0
    5.4669   -0.3101   25.3279 O   0  0  0  0  0  0  0  0  0  0  0  0
    5.9523    0.6679   27.4869 C   0  0  0  0  0  0  0  0  0  0  0  0
    7.8840   -3.2864   21.7816 C   0  0  1  0  0  0  0  0  0  0  0  0
    7.2362   -2.6963   23.0027 C   0  0  1  0  0  0  0  0  0  0  0  0
    6.5576   -3.9742   19.7968 C   0  0  0  0  0  0  0  0  0  0  0  0
    7.2596   -2.9013   19.0067 C   0  0  1  0  0  0  0  0  0  0  0  0
    6.6045    0.5598   28.7038 C   0  0  0  0  0  0  0  0  0  0  0  0
    7.3844   -0.5413   28.9856 C   0  0  0  0  0  0  0  0  0  0  0  0
    7.5211   -1.5564   28.0506 C   0  0  0  0  0  0  0  0  0  0  0  0
    6.8590   -1.4693   26.8417 C   0  0  0  0  0  0  0  0  0  0  0  0
    6.1325   -3.1992   25.1818 C   0  0  0  0  0  0  0  0  0  0  0  0
    6.7152   -3.8053   23.9187 C   0  0  1  0  0  0  0  0  0  0  0  0
    5.7240   -4.6741   23.1419 C   0  0  1  0  0  0  0  0  0  0  0  0
    6.3867   -5.2352   21.9068 C   0  0  1  0  0  0  0  0  0  0  0  0
    6.9327   -4.1513   21.0797 N   0  0  0  0  0  0  0  0  0  0  0  0
    4.9545   -3.3310   25.4950 O   0  0  0  0  0  0  0  0  0  0  0  0
    5.6924   -4.6621   19.2679 O   0  0  0  0  0  0  0  0  0  0  0  0
    7.9914   -2.7978   25.7778 H   0  0  0  0  0  0  0  0  0  0  0  0
    5.1739   -1.1828   25.0932 H   0  0  0  0  0  0  0  0  0  0  0  0
    5.3470    1.5362   27.2724 H   0  0  0  0  0  0  0  0  0  0  0  0
    8.2031   -2.4755   21.1103 H   0  0  0  0  0  0  0  0  0  0  0  0
    8.7603   -3.8784   22.0840 H   0  0  0  0  0  0  0  0  0  0  0  0
    7.9756   -2.0923   23.5491 H   0  0  0  0  0  0  0  0  0  0  0  0
    6.3963   -2.0566   22.6941 H   0  0  0  0  0  0  0  0  0  0  0  0
    6.8649   -2.8836   17.9801 H   0  0  0  0  0  0  0  0  0  0  0  0
    7.0881   -1.9244   19.4822 H   0  0  0  0  0  0  0  0  0  0  0  0
    8.3389   -3.1121   18.9808 H   0  0  0  0  0  0  0  0  0  0  0  0
    6.5012    1.3449   29.4382 H   0  0  0  0  0  0  0  0  0  0  0  0
    7.8902   -0.6138   29.9371 H   0  0  0  0  0  0  0  0  0  0  0  0
    8.1433   -2.4121   28.2670 H   0  0  0  0  0  0  0  0  0  0  0  0
    7.5686   -4.4376   24.2050 H   0  0  0  0  0  0  0  0  0  0  0  0
    5.3860   -5.5024   23.7820 H   0  0  0  0  0  0  0  0  0  0  0  0
    4.8586   -4.0632   22.8453 H   0  0  0  0  0  0  0  0  0  0  0  0
    7.2035   -5.9077   22.2079 H   0  0  0  0  0  0  0  0  0  0  0  0
    5.6448   -5.7985   21.3218 H   0  0  0  0  0  0  0  0  0  0  0  0
  1 12  1  0
  1 13  1  0
  1 20  1  0
  2  3  1  0
  2  4  2  0
  2 12  1  0
  3 21  1  0
  4  9  1  0
  4 22  1  0
  5  6  1  0
  5 17  1  0
  5 23  1  6
  5 24  1  0
  6 14  1  0
  6 25  1  1
  6 26  1  0
  7  8  1  0
  7 17  1  0
  7 19  2  0
  8 27  1  6
  8 28  1  0
  8 29  1  0
  9 10  2  0
  9 30  1  0
 10 11  1  0
 10 31  1  0
 11 12  2  0
 11 32  1  0
 13 14  1  0
 13 18  2  0
 14 15  1  0
 14 33  1  1
 15 16  1  0
 15 34  1  1
 15 35  1  0
 16 17  1  0
 16 36  1  1
 16 37  1  0
M  END
$$$$
