LIG(A-306)
     RDKit          3D

 34 36  0  0  0  0  0  0  0  0999 V2000
    9.3001    0.9318   21.1038 O   0  0  0  0  0  0  0  0  0  0  0  0
    8.7770   -0.1111   21.5074 C   0  0  0  0  0  0  0  0  0  0  0  0
    9.4450   -0.9920   22.5450 C   0  0  1  0  0  0  0  0  0  0  0  0
   10.8888   -0.6365   22.8081 C   0  0  0  0  0  0  0  0  0  0  0  0
   11.2281    0.4154   23.6384 C   0  0  0  0  0  0  0  0  0  0  0  0
   10.2262    1.0922   24.2468 F   0  0  0  0  0  0  0  0  0  0  0  0
   12.5245    0.8370   23.8333 C   0  0  0  0  0  0  0  0  0  0  0  0
   13.5413    0.2006   23.1447 C   0  0  0  0  0  0  0  0  0  0  0  0
   11.9185   -1.2694   22.1175 C   0  0  0  0  0  0  0  0  0  0  0  0
   13.2069   -0.8208   22.2907 C   0  0  0  0  0  0  0  0  0  0  0  0
   14.1833   -1.3614   21.5119 F   0  0  0  0  0  0  0  0  0  0  0  0
    7.5879   -0.5717   21.0623 N   0  0  0  0  0  0  0  0  0  0  0  0
    6.7992   -0.0393   20.0220 C   0  0  0  0  0  0  0  0  0  0  0  0
    5.6677    0.7653   20.3605 C   0  0  0  0  0  0  0  0  0  0  0  0
    5.2479    1.0208   21.6913 C   0  0  0  0  0  0  0  0  0  0  0  0
    4.1787    1.8335   21.9472 C   0  0  0  0  0  0  0  0  0  0  0  0
    3.4784    2.4297   20.9096 C   0  0  0  0  0  0  0  0  0  0  0  0
    3.8413    2.2139   19.6113 C   0  0  0  0  0  0  0  0  0  0  0  0
    4.9409    1.3768   19.3004 C   0  0  0  0  0  0  0  0  0  0  0  0
    5.3832    1.1363   17.9733 C   0  0  0  0  0  0  0  0  0  0  0  0
    6.4321    0.3872   17.6614 N   0  0  0  0  0  0  0  0  0  0  0  0
    7.1094   -0.1808   18.6699 C   0  0  0  0  0  0  0  0  0  0  0  0
    8.8876   -0.8999   23.4888 H   0  0  0  0  0  0  0  0  0  0  0  0
    9.4027   -2.0338   22.1945 H   0  0  0  0  0  0  0  0  0  0  0  0
   12.7431    1.6490   24.5110 H   0  0  0  0  0  0  0  0  0  0  0  0
   14.5709    0.4992   23.2755 H   0  0  0  0  0  0  0  0  0  0  0  0
   11.7092   -2.0983   21.4575 H   0  0  0  0  0  0  0  0  0  0  0  0
    7.2259   -1.3822   21.5227 H   0  0  0  0  0  0  0  0  0  0  0  0
    5.7804    0.5669   22.5141 H   0  0  0  0  0  0  0  0  0  0  0  0
    3.8763    2.0130   22.9683 H   0  0  0  0  0  0  0  0  0  0  0  0
    2.6379    3.0710   21.1306 H   0  0  0  0  0  0  0  0  0  0  0  0
    3.2853    2.6854   18.8144 H   0  0  0  0  0  0  0  0  0  0  0  0
    4.8299    1.5926   17.1658 H   0  0  0  0  0  0  0  0  0  0  0  0
    7.9604   -0.7951   18.4154 H   0  0  0  0  0  0  0  0  0  0  0  0
  1  2  2  0
  2  3  1  0
  2 12  1  0
  3  4  1  0
  3 23  1  1
  3 24  1  0
  4  5  2  0
  4  9  1  0
  5  6  1  0
  5  7  1  0
  7  8  2  0
  7 25  1  0
  8 10  1  0
  8 26  1  0
  9 10  2  0
  9 27  1  0
 10 11  1  0
 12 13  1  0
 12 28  1  0
 13 14  2  0
 13 22  1  0
 14 15  1  0
 14 19  1  0
 15 16  2  0
 15 29  1  0
 16 17  1  0
 16 30  1  0
 17 18  2  0
 17 31  1  0
 18 19  1  0
 18 32  1  0
 19 20  2  0
 20 21  1  0
 20 33  1  0
 21 22  2  0
 22 34  1  0
M  END
$$$$
