LIG(A-306)
     RDKit          3D

 62 66  0  0  1  0  0  0  0  0999 V2000
    8.2925    6.5792   22.8433 N   0  0  0  0  0  0  0  0  0  0  0  0
    7.6025    5.6742   22.8241 C   0  0  0  0  0  0  0  0  0  0  0  0
    6.7315    4.4942   22.7348 C   0  0  1  0  0  0  0  0  0  0  0  0
    5.3384    4.5642   23.3217 C   0  0  1  0  0  0  0  0  0  0  0  0
    5.5116    4.6413   21.8527 C   0  0  2  0  0  0  0  0  0  0  0  0
    7.4945    3.1752   22.7728 C   0  0  1  0  0  0  0  0  0  0  0  0
    7.8642    2.5350   24.3948 S   0  0  2  0  0  0  0  0  0  0  0  0
    6.7042    1.8660   24.8916 O   0  0  0  0  0  0  0  0  0  0  0  0
    8.4431    3.5930   25.1620 O   0  0  0  0  0  0  0  0  0  0  0  0
    9.0123    1.4081   24.1848 N   0  0  0  0  0  0  0  0  0  0  0  0
    8.6973   -0.0329   24.1776 C   0  0  1  0  0  0  0  0  0  0  0  0
   10.4052    1.7410   24.5070 C   0  0  1  0  0  0  0  0  0  0  0  0
   11.3463    0.8841   23.6901 C   0  0  0  0  0  0  0  0  0  0  0  0
   10.9044   -0.2738   23.0239 C   0  0  0  0  0  0  0  0  0  0  0  0
   11.8245   -1.0467   22.3119 C   0  0  0  0  0  0  0  0  0  0  0  0
   13.1355   -0.6237   22.2081 C   0  0  0  0  0  0  0  0  0  0  0  0
   14.2316   -1.5106   21.1882 Cl  0  0  0  0  0  0  0  0  0  0  0  0
   13.5794    0.5182   22.8373 C   0  0  0  0  0  0  0  0  0  0  0  0
   12.6863    1.2581   23.5903 C   0  0  0  0  0  0  0  0  0  0  0  0
    9.4184   -0.5858   22.9476 C   0  0  2  0  0  0  0  0  0  0  0  0
    8.7846    0.0153   21.6876 C   0  0  0  0  0  0  0  0  0  0  0  0
    9.2757    0.9874   21.1168 O   0  0  0  0  0  0  0  0  0  0  0  0
    7.6266   -0.5746   21.2814 N   0  0  0  0  0  0  0  0  0  0  0  0
    6.7868   -0.1845   20.2053 C   0  0  0  0  0  0  0  0  0  0  0  0
    7.1650   -0.2413   18.8624 C   0  0  0  0  0  0  0  0  0  0  0  0
    6.4821    0.2998   17.8414 N   0  0  0  0  0  0  0  0  0  0  0  0
    5.3621    0.9517   18.1283 C   0  0  0  0  0  0  0  0  0  0  0  0
    4.8309    1.0856   19.4352 C   0  0  0  0  0  0  0  0  0  0  0  0
    5.5427    0.4645   20.5042 C   0  0  0  0  0  0  0  0  0  0  0  0
    4.9686    0.5053   21.7972 C   0  0  0  0  0  0  0  0  0  0  0  0
    3.7905    1.1473   22.0221 C   0  0  0  0  0  0  0  0  0  0  0  0
    3.6328    1.7916   19.7201 C   0  0  0  0  0  0  0  0  0  0  0  0
    3.1357    1.8404   21.0071 C   0  0  0  0  0  0  0  0  0  0  0  0
    1.9806    2.6154   21.3610 N   0  0  0  0  0  0  0  0  0  0  0  0
    1.1008    3.6145   20.4190 S   0  0  1  0  0  0  0  0  0  0  0  0
    1.8478    4.8345   20.3612 O   0  0  0  0  0  0  0  0  0  0  0  0
    0.7849    2.9436   19.1969 O   0  0  0  0  0  0  0  0  0  0  0  0
   -0.3933    3.9254   21.2798 C   0  0  1  0  0  0  0  0  0  0  0  0
    4.8886    3.6681   23.7742 H   0  0  0  0  0  0  0  0  0  0  0  0
    5.0247    5.4559   23.8842 H   0  0  0  0  0  0  0  0  0  0  0  0
    5.1898    3.8024   21.2182 H   0  0  0  0  0  0  0  0  0  0  0  0
    5.3259    5.5902   21.3281 H   0  0  0  0  0  0  0  0  0  0  0  0
    6.8925    2.4225   22.2427 H   0  0  0  0  0  0  0  0  0  0  0  0
    8.4473    3.3219   22.2432 H   0  0  0  0  0  0  0  0  0  0  0  0
    9.0689   -0.5151   25.0937 H   0  0  0  0  0  0  0  0  0  0  0  0
    7.6120   -0.1916   24.0941 H   0  0  0  0  0  0  0  0  0  0  0  0
   10.5880    2.8015   24.2790 H   0  0  0  0  0  0  0  0  0  0  0  0
   10.5845    1.5599   25.5771 H   0  0  0  0  0  0  0  0  0  0  0  0
   11.5129   -1.9696   21.8454 H   0  0  0  0  0  0  0  0  0  0  0  0
   14.6089    0.8308   22.7441 H   0  0  0  0  0  0  0  0  0  0  0  0
   13.0320    2.1399   24.1095 H   0  0  0  0  0  0  0  0  0  0  0  0
    9.2858   -1.6775   22.9218 H   0  0  0  0  0  0  0  0  0  0  0  0
    7.3335   -1.3766   21.8020 H   0  0  0  0  0  0  0  0  0  0  0  0
    8.0808   -0.7627   18.6261 H   0  0  0  0  0  0  0  0  0  0  0  0
    4.8209    1.4095   17.3135 H   0  0  0  0  0  0  0  0  0  0  0  0
    5.4739    0.0190   22.6185 H   0  0  0  0  0  0  0  0  0  0  0  0
    3.3536    1.1189   23.0093 H   0  0  0  0  0  0  0  0  0  0  0  0
    3.1057    2.2949   18.9231 H   0  0  0  0  0  0  0  0  0  0  0  0
    2.0120    2.9249   22.3114 H   0  0  0  0  0  0  0  0  0  0  0  0
   -1.0272    4.5986   20.6839 H   0  0  0  0  0  0  0  0  0  0  0  0
   -0.9236    2.9765   21.4485 H   0  0  0  0  0  0  0  0  0  0  0  0
   -0.1674    4.3962   22.2480 H   0  0  0  0  0  0  0  0  0  0  0  0
  1  2  3  0
  3  2  1  1
  3  4  1  0
  3  5  1  0
  3  6  1  0
  4  5  1  0
  4 39  1  6
  4 40  1  0
  5 41  1  6
  5 42  1  0
  6  7  1  0
  6 43  1  6
  6 44  1  0
  7  8  2  0
  7  9  2  0
  7 10  1  6
 10 11  1  0
 10 12  1  0
 11 20  1  0
 11 45  1  1
 11 46  1  0
 12 13  1  0
 12 47  1  1
 12 48  1  0
 13 14  2  0
 13 19  1  0
 14 15  1  0
 14 20  1  0
 15 16  2  0
 15 49  1  0
 16 17  1  0
 16 18  1  0
 18 19  2  0
 18 50  1  0
 19 51  1  0
 20 21  1  0
 20 52  1  6
 21 22  2  0
 21 23  1  0
 23 24  1  0
 23 53  1  0
 24 25  2  0
 24 29  1  0
 25 26  1  0
 25 54  1  0
 26 27  2  0
 27 28  1  0
 27 55  1  0
 28 29  2  0
 28 32  1  0
 29 30  1  0
 30 31  2  0
 30 56  1  0
 31 33  1  0
 31 57  1  0
 32 33  2  0
 32 58  1  0
 33 34  1  0
 35 34  1  1
 34 59  1  0
 35 36  2  0
 35 37  2  0
 35 38  1  0
 38 60  1  6
 38 61  1  0
 38 62  1  0
M  END
$$$$
