LIG(A-305)
     RDKit          3D

 61 63  0  0  1  0  0  0  0  0999 V2000
    7.9152   -2.1905   24.3549 N   0  0  1  0  0  0  0  0  0  0  0  0
   11.9560   -1.3391   22.7861 C   0  0  1  0  0  0  0  0  0  0  0  0
    4.8006   -0.1680   25.4583 C   0  0  1  0  0  0  0  0  0  0  0  0
    6.4712   -4.3588   20.3274 C   0  0  0  0  0  0  0  0  0  0  0  0
    5.6520   -5.0837   19.7986 O   0  0  0  0  0  0  0  0  0  0  0  0
   11.6113   -2.3207   25.5233 C   0  0  1  0  0  0  0  0  0  0  0  0
    5.6973   -0.9162   24.4672 C   0  0  1  0  0  0  0  0  0  0  0  0
    6.5574   -5.8056   22.3096 C   0  0  1  0  0  0  0  0  0  0  0  0
    9.1192   -2.6495   25.1758 C   0  0  1  0  0  0  0  0  0  0  0  0
    6.8049    0.7349   26.6328 C   0  0  1  0  0  0  0  0  0  0  0  0
    7.7256   -0.0193   25.6627 C   0  0  1  0  0  0  0  0  0  0  0  0
   13.0722   -1.1651   23.8149 C   0  0  1  0  0  0  0  0  0  0  0  0
    7.2539   -3.2895   23.6132 C   0  0  1  0  0  0  0  0  0  0  0  0
    7.8706   -3.7157   22.2891 C   0  0  1  0  0  0  0  0  0  0  0  0
   13.0022   -2.2490   24.8850 C   0  0  2  0  0  0  0  0  0  0  0  0
   10.5791   -1.3959   23.4544 C   0  0  1  0  0  0  0  0  0  0  0  0
    7.0082   -3.1579   19.5752 C   0  0  1  0  0  0  0  0  0  0  0  0
    6.8079   -4.4994   24.4404 C   0  0  1  0  0  0  0  0  0  0  0  0
    5.4798    1.0820   25.9790 C   0  0  2  0  0  0  0  0  0  0  0  0
    6.9474   -4.5977   21.5674 N   0  0  0  0  0  0  0  0  0  0  0  0
    4.6290    1.7541   26.9001 O   0  0  0  0  0  0  0  0  0  0  0  0
   10.4961   -2.5127   24.4925 C   0  0  1  0  0  0  0  0  0  0  0  0
    7.0384   -1.2723   25.1130 C   0  0  2  0  0  0  0  0  0  0  0  0
    5.9007   -5.4253   23.6286 C   0  0  2  0  0  0  0  0  0  0  0  0
    8.3164   -1.6167   23.6409 H   0  0  0  0  0  0  0  0  0  0  0  0
   11.9790   -0.4902   22.0870 H   0  0  0  0  0  0  0  0  0  0  0  0
   12.1232   -2.2748   22.2324 H   0  0  0  0  0  0  0  0  0  0  0  0
    3.8661    0.1161   24.9522 H   0  0  0  0  0  0  0  0  0  0  0  0
    4.5716   -0.8310   26.3056 H   0  0  0  0  0  0  0  0  0  0  0  0
   11.5902   -3.1668   26.2260 H   0  0  0  0  0  0  0  0  0  0  0  0
   11.4268   -1.3847   26.0707 H   0  0  0  0  0  0  0  0  0  0  0  0
    5.1925   -1.8407   24.1503 H   0  0  0  0  0  0  0  0  0  0  0  0
    5.8773   -0.2775   23.5899 H   0  0  0  0  0  0  0  0  0  0  0  0
    5.8472   -6.3893   21.7055 H   0  0  0  0  0  0  0  0  0  0  0  0
    7.4524   -6.4123   22.5114 H   0  0  0  0  0  0  0  0  0  0  0  0
    9.1422   -2.0549   26.1009 H   0  0  0  0  0  0  0  0  0  0  0  0
    8.9715   -3.7106   25.4254 H   0  0  0  0  0  0  0  0  0  0  0  0
    6.6154    0.1018   27.5122 H   0  0  0  0  0  0  0  0  0  0  0  0
    7.3020    1.6636   26.9497 H   0  0  0  0  0  0  0  0  0  0  0  0
    7.9861    0.6445   24.8251 H   0  0  0  0  0  0  0  0  0  0  0  0
    8.6419   -0.3160   26.1942 H   0  0  0  0  0  0  0  0  0  0  0  0
   14.0447   -1.2257   23.3045 H   0  0  0  0  0  0  0  0  0  0  0  0
   12.9701   -0.1799   24.2934 H   0  0  0  0  0  0  0  0  0  0  0  0
    6.2977   -2.8424   23.3037 H   0  0  0  0  0  0  0  0  0  0  0  0
    8.0749   -2.8239   21.6785 H   0  0  0  0  0  0  0  0  0  0  0  0
    8.8116   -4.2520   22.4813 H   0  0  0  0  0  0  0  0  0  0  0  0
   13.2347   -3.2207   24.4249 H   0  0  0  0  0  0  0  0  0  0  0  0
   13.7431   -2.0270   25.6672 H   0  0  0  0  0  0  0  0  0  0  0  0
   10.3847   -0.4337   23.9507 H   0  0  0  0  0  0  0  0  0  0  0  0
    9.8157   -1.5708   22.6819 H   0  0  0  0  0  0  0  0  0  0  0  0
    6.5431   -3.1103   18.5795 H   0  0  0  0  0  0  0  0  0  0  0  0
    6.7728   -2.2401   20.1339 H   0  0  0  0  0  0  0  0  0  0  0  0
    8.0988   -3.2513   19.4662 H   0  0  0  0  0  0  0  0  0  0  0  0
    7.6975   -5.0610   24.7616 H   0  0  0  0  0  0  0  0  0  0  0  0
    6.2586   -4.1453   25.3251 H   0  0  0  0  0  0  0  0  0  0  0  0
    5.6839    1.7421   25.1232 H   0  0  0  0  0  0  0  0  0  0  0  0
    4.8447    2.6792   26.9141 H   0  0  0  0  0  0  0  0  0  0  0  0
   10.6940   -3.4604   23.9702 H   0  0  0  0  0  0  0  0  0  0  0  0
    6.7584   -1.8390   26.0132 H   0  0  0  0  0  0  0  0  0  0  0  0
    5.7044   -6.3383   24.2101 H   0  0  0  0  0  0  0  0  0  0  0  0
    4.9508   -4.9102   23.4231 H   0  0  0  0  0  0  0  0  0  0  0  0
  1  9  1  0
  1 13  1  0
  1 23  1  0
  1 25  1  6
  2 12  1  0
  2 16  1  0
  2 26  1  6
  2 27  1  0
  3  7  1  0
  3 19  1  0
  3 28  1  6
  3 29  1  0
  4  5  2  0
  4 17  1  0
  4 20  1  0
  6 15  1  0
  6 22  1  0
  6 30  1  1
  6 31  1  0
  7 23  1  0
  7 32  1  6
  7 33  1  0
  8 20  1  0
  8 24  1  0
  8 34  1  6
  8 35  1  0
  9 22  1  0
  9 36  1  1
  9 37  1  0
 10 11  1  0
 10 19  1  0
 10 38  1  1
 10 39  1  0
 11 23  1  0
 11 40  1  6
 11 41  1  0
 12 15  1  0
 12 42  1  6
 12 43  1  0
 13 14  1  0
 13 18  1  0
 13 44  1  6
 14 20  1  0
 14 45  1  6
 14 46  1  0
 15 47  1  6
 15 48  1  0
 16 22  1  0
 16 49  1  1
 16 50  1  0
 17 51  1  6
 17 52  1  0
 17 53  1  0
 18 24  1  0
 18 54  1  1
 18 55  1  0
 19 21  1  0
 19 56  1  6
 21 57  1  0
 22 58  1  6
 23 59  1  1
 24 60  1  1
 24 61  1  0
M  CHG  1   1   1
M  END
$$$$
