LIG(A-307)
     RDKit          3D

 62 67  0  0  1  0  0  0  0  0999 V2000
    9.4475    1.4603   21.3923 O   0  0  0  0  0  0  0  0  0  0  0  0
    9.0646    0.3803   21.8163 C   0  0  0  0  0  0  0  0  0  0  0  0
    8.0126   -0.3367   21.3265 N   0  0  0  0  0  0  0  0  0  0  0  0
    7.1384    0.0873   20.2726 C   0  0  0  0  0  0  0  0  0  0  0  0
    5.9484    0.8362   20.5139 C   0  0  0  0  0  0  0  0  0  0  0  0
    5.4886    1.2092   21.8049 C   0  0  0  0  0  0  0  0  0  0  0  0
    4.3606    1.9671   21.9592 C   0  0  0  0  0  0  0  0  0  0  0  0
    3.6454    2.4051   20.8533 C   0  0  0  0  0  0  0  0  0  0  0  0
    4.0412    2.0682   19.5892 C   0  0  0  0  0  0  0  0  0  0  0  0
    5.1892    1.2623   19.3840 C   0  0  0  0  0  0  0  0  0  0  0  0
    5.6470    0.8783   18.0979 C   0  0  0  0  0  0  0  0  0  0  0  0
    6.7470    0.1684   17.8807 N   0  0  0  0  0  0  0  0  0  0  0  0
    7.4652   -0.1976   18.9506 C   0  0  0  0  0  0  0  0  0  0  0  0
    7.8467   -1.6378   21.9984 C   0  0  1  0  0  0  0  0  0  0  0  0
    9.1849   -1.8417   22.7052 C   0  0  1  0  0  0  0  0  0  0  0  0
    9.6659   -0.4017   22.9942 C   0  0  1  0  0  0  0  0  0  0  0  0
   11.1939   -0.2557   23.0549 C   0  0  0  0  0  0  0  0  0  0  0  0
   11.7710    0.6263   23.9839 C   0  0  0  0  0  0  0  0  0  0  0  0
   13.1470    0.8574   23.9367 C   0  0  0  0  0  0  0  0  0  0  0  0
   13.9438    0.2345   22.9925 C   0  0  0  0  0  0  0  0  0  0  0  0
   12.0077   -0.9266   22.1398 C   0  0  0  0  0  0  0  0  0  0  0  0
   13.3647   -0.6575   22.1136 C   0  0  0  0  0  0  0  0  0  0  0  0
   14.3576   -1.4334   20.9054 Cl  0  0  0  0  0  0  0  0  0  0  0  0
    8.9700    0.1592   24.2613 C   0  0  1  0  0  0  0  0  0  0  0  0
    9.5200    1.4732   24.5883 N   0  0  2  0  0  0  0  0  0  0  0  0
   10.9261    1.3492   25.0111 C   0  0  2  0  0  0  0  0  0  0  0  0
    8.6982    2.2671   25.4985 C   0  0  1  0  0  0  0  0  0  0  0  0
    7.6530    3.1091   24.7827 C   0  0  0  0  0  0  0  0  0  0  0  0
    6.5341    3.2900   25.2669 O   0  0  0  0  0  0  0  0  0  0  0  0
    8.0318    3.6052   23.6056 N   0  0  0  0  0  0  0  0  0  0  0  0
    7.1646    4.4272   22.7678 C   0  0  1  0  0  0  0  0  0  0  0  0
    7.1476    5.8782   23.2139 C   0  0  2  0  0  0  0  0  0  0  0  0
    6.8474    6.9202   22.1850 C   0  0  1  0  0  0  0  0  0  0  0  0
    8.2325    6.7842   22.7317 C   0  0  2  0  0  0  0  0  0  0  0  0
    6.0380    0.8893   22.6780 H   0  0  0  0  0  0  0  0  0  0  0  0
    4.0230    2.2273   22.9514 H   0  0  0  0  0  0  0  0  0  0  0  0
    2.7674    3.0183   20.9930 H   0  0  0  0  0  0  0  0  0  0  0  0
    3.4745    2.4190   18.7394 H   0  0  0  0  0  0  0  0  0  0  0  0
    5.0639    1.1828   17.2414 H   0  0  0  0  0  0  0  0  0  0  0  0
    8.3706   -0.7590   18.7726 H   0  0  0  0  0  0  0  0  0  0  0  0
    7.0197   -1.6044   22.7229 H   0  0  0  0  0  0  0  0  0  0  0  0
    7.6615   -2.4381   21.2670 H   0  0  0  0  0  0  0  0  0  0  0  0
    9.0534   -2.4070   23.6397 H   0  0  0  0  0  0  0  0  0  0  0  0
    9.8965   -2.3704   22.0540 H   0  0  0  0  0  0  0  0  0  0  0  0
   13.5968    1.5334   24.6487 H   0  0  0  0  0  0  0  0  0  0  0  0
   15.0024    0.4432   22.9444 H   0  0  0  0  0  0  0  0  0  0  0  0
   11.5820   -1.6487   21.4588 H   0  0  0  0  0  0  0  0  0  0  0  0
    7.8901    0.2518   24.0740 H   0  0  0  0  0  0  0  0  0  0  0  0
    9.1384   -0.5271   25.1044 H   0  0  0  0  0  0  0  0  0  0  0  0
    9.5410    1.9812   23.7272 H   0  0  0  0  0  0  0  0  0  0  0  0
   11.3400    2.3568   25.1642 H   0  0  0  0  0  0  0  0  0  0  0  0
   10.9634    0.7897   25.9574 H   0  0  0  0  0  0  0  0  0  0  0  0
    8.1830    1.5842   26.1900 H   0  0  0  0  0  0  0  0  0  0  0  0
    9.3570    2.9384   26.0689 H   0  0  0  0  0  0  0  0  0  0  0  0
    8.9559    3.4043   23.2803 H   0  0  0  0  0  0  0  0  0  0  0  0
    7.5255    4.3794   21.7298 H   0  0  0  0  0  0  0  0  0  0  0  0
    6.1407    4.0285   22.8188 H   0  0  0  0  0  0  0  0  0  0  0  0
    6.7658    6.0667   24.2281 H   0  0  0  0  0  0  0  0  0  0  0  0
    6.6339    6.6235   21.1475 H   0  0  0  0  0  0  0  0  0  0  0  0
    6.2347    7.7946   22.4498 H   0  0  0  0  0  0  0  0  0  0  0  0
    9.0381    6.3879   22.0963 H   0  0  0  0  0  0  0  0  0  0  0  0
    8.6390    7.5588   23.3986 H   0  0  0  0  0  0  0  0  0  0  0  0
  1  2  2  0
  2  3  1  0
 16  2  1  6
  3  4  1  0
  3 14  1  0
  4  5  2  0
  4 13  1  0
  5  6  1  0
  5 10  1  0
  6  7  2  0
  6 35  1  0
  7  8  1  0
  7 36  1  0
  8  9  2  0
  8 37  1  0
  9 10  1  0
  9 38  1  0
 10 11  2  0
 11 12  1  0
 11 39  1  0
 12 13  2  0
 13 40  1  0
 14 15  1  0
 14 41  1  1
 14 42  1  0
 15 16  1  0
 15 43  1  1
 15 44  1  0
 16 17  1  0
 16 24  1  0
 17 18  2  0
 17 21  1  0
 18 19  1  0
 18 26  1  0
 19 20  2  0
 19 45  1  0
 20 22  1  0
 20 46  1  0
 21 22  2  0
 21 47  1  0
 22 23  1  0
 24 25  1  0
 24 48  1  6
 24 49  1  0
 25 26  1  0
 25 27  1  0
 25 50  1  6
 26 51  1  1
 26 52  1  0
 27 28  1  0
 27 53  1  1
 27 54  1  0
 28 29  2  0
 28 30  1  0
 30 31  1  0
 30 55  1  0
 31 32  1  0
 31 56  1  6
 31 57  1  0
 32 33  1  0
 32 34  1  0
 32 58  1  1
 33 34  1  0
 33 59  1  6
 33 60  1  0
 34 61  1  6
 34 62  1  0
M  CHG  1  25   1
M  END
$$$$
