LIG(A-306)
     RDKit          3D

 42 46  0  0  1  0  0  0  0  0999 V2000
    9.2092    1.3562   21.1989 O   0  0  0  0  0  0  0  0  0  0  0  0
    8.7600    0.3089   21.6280 C   0  0  0  0  0  0  0  0  0  0  0  0
    9.2022   -0.4164   22.9038 C   0  0  2  0  0  0  0  0  0  0  0  0
    8.4986    0.2947   24.0883 C   0  0  1  0  0  0  0  0  0  0  0  0
    9.4608    0.6955   25.1904 C   0  0  1  0  0  0  0  0  0  0  0  0
   10.6200    1.3661   24.6697 O   0  0  0  0  0  0  0  0  0  0  0  0
   10.7341   -0.3838   23.0003 C   0  0  0  0  0  0  0  0  0  0  0  0
   11.3449    0.5474   23.8430 C   0  0  0  0  0  0  0  0  0  0  0  0
   12.7217    0.6626   23.9309 C   0  0  0  0  0  0  0  0  0  0  0  0
   13.5176   -0.1507   23.1462 C   0  0  0  0  0  0  0  0  0  0  0  0
   11.5491   -1.2109   22.2266 C   0  0  0  0  0  0  0  0  0  0  0  0
   12.9237   -1.0440   22.2782 C   0  0  0  0  0  0  0  0  0  0  0  0
   13.9114   -1.8226   21.0712 Cl  0  0  0  0  0  0  0  0  0  0  0  0
    7.7348   -0.4447   21.0423 N   0  0  0  0  0  0  0  0  0  0  0  0
    7.5432   -1.6740   21.6686 C   0  0  0  0  0  0  0  0  0  0  0  0
    6.6311   -2.4432   21.4029 O   0  0  0  0  0  0  0  0  0  0  0  0
    8.6178   -1.8323   22.7134 C   0  0  2  0  0  0  0  0  0  0  0  0
    6.9164    0.0290   19.9563 C   0  0  0  0  0  0  0  0  0  0  0  0
    5.8162    0.8810   20.2388 C   0  0  0  0  0  0  0  0  0  0  0  0
    5.3717    1.2176   21.5457 C   0  0  0  0  0  0  0  0  0  0  0  0
    4.3006    2.0461   21.7304 C   0  0  0  0  0  0  0  0  0  0  0  0
    3.6229    2.5821   20.6429 C   0  0  0  0  0  0  0  0  0  0  0  0
    4.0144    2.2916   19.3687 C   0  0  0  0  0  0  0  0  0  0  0  0
    5.1155    1.4328   19.1302 C   0  0  0  0  0  0  0  0  0  0  0  0
    5.5711    1.0953   17.8304 C   0  0  0  0  0  0  0  0  0  0  0  0
    6.6021    0.2963   17.5815 N   0  0  0  0  0  0  0  0  0  0  0  0
    7.2527   -0.2230   18.6329 C   0  0  0  0  0  0  0  0  0  0  0  0
    8.0018    1.2000   23.7093 H   0  0  0  0  0  0  0  0  0  0  0  0
    7.7458   -0.3874   24.5102 H   0  0  0  0  0  0  0  0  0  0  0  0
    8.9425    1.3703   25.8875 H   0  0  0  0  0  0  0  0  0  0  0  0
    9.7838   -0.2087   25.7272 H   0  0  0  0  0  0  0  0  0  0  0  0
   13.1684    1.3790   24.6044 H   0  0  0  0  0  0  0  0  0  0  0  0
   14.5937   -0.0874   23.2117 H   0  0  0  0  0  0  0  0  0  0  0  0
   11.1140   -1.9717   21.5955 H   0  0  0  0  0  0  0  0  0  0  0  0
    8.1889   -2.2034   23.6559 H   0  0  0  0  0  0  0  0  0  0  0  0
    9.3956   -2.5279   22.3656 H   0  0  0  0  0  0  0  0  0  0  0  0
    5.8870    0.8134   22.4044 H   0  0  0  0  0  0  0  0  0  0  0  0
    3.9777    2.2866   22.7326 H   0  0  0  0  0  0  0  0  0  0  0  0
    2.7784    3.2348   20.8075 H   0  0  0  0  0  0  0  0  0  0  0  0
    3.4798    2.7203   18.5340 H   0  0  0  0  0  0  0  0  0  0  0  0
    5.0444    1.5161   16.9867 H   0  0  0  0  0  0  0  0  0  0  0  0
    8.0896   -0.8774   18.4384 H   0  0  0  0  0  0  0  0  0  0  0  0
  1  2  2  0
  3  2  1  6
  2 14  1  0
  3  4  1  0
  3  7  1  0
  3 17  1  0
  4  5  1  0
  4 28  1  6
  4 29  1  0
  5  6  1  0
  5 30  1  1
  5 31  1  0
  6  8  1  0
  7  8  2  0
  7 11  1  0
  8  9  1  0
  9 10  2  0
  9 32  1  0
 10 12  1  0
 10 33  1  0
 11 12  2  0
 11 34  1  0
 12 13  1  0
 14 15  1  0
 14 18  1  0
 15 16  2  0
 15 17  1  0
 17 35  1  1
 17 36  1  0
 18 19  2  0
 18 27  1  0
 19 20  1  0
 19 24  1  0
 20 21  2  0
 20 37  1  0
 21 22  1  0
 21 38  1  0
 22 23  2  0
 22 39  1  0
 23 24  1  0
 23 40  1  0
 24 25  2  0
 25 26  1  0
 25 41  1  0
 26 27  2  0
 27 42  1  0
M  END
$$$$
