LIG(A-305)
     RDKit          3D

 46 49  0  0  0  0  0  0  0  0999 V2000
   13.6216   -0.7862   21.8859 S   0  0  0  0  0  0  0  0  0  0  0  0
    8.8174   -4.9498   26.0081 N   0  0  0  0  0  0  0  0  0  0  0  0
    7.5815   -0.4756   18.8192 N   0  0  0  0  0  0  0  0  0  0  0  0
    7.1096   -0.4196   20.0902 N   0  0  0  0  0  0  0  0  0  0  0  0
    8.9285   -3.7758   25.2851 C   0  0  0  0  0  0  0  0  0  0  0  0
   11.9606   -0.5540   22.1690 C   0  0  0  0  0  0  0  0  0  0  0  0
    5.1937    0.8206   21.1833 C   0  0  0  0  0  0  0  0  0  0  0  0
   11.7087    0.3670   23.1480 C   0  0  0  0  0  0  0  0  0  0  0  0
    8.0676   -2.6997   25.5152 C   0  0  0  0  0  0  0  0  0  0  0  0
    9.8605   -3.6928   24.2571 C   0  0  0  0  0  0  0  0  0  0  0  0
    3.9237    2.0667   19.5383 C   0  0  0  0  0  0  0  0  0  0  0  0
    9.9315   -2.5588   23.4681 C   0  0  0  0  0  0  0  0  0  0  0  0
    9.0986   -1.4698   23.7121 C   0  0  0  0  0  0  0  0  0  0  0  0
   14.0277    0.3848   23.1039 C   0  0  0  0  0  0  0  0  0  0  0  0
    7.9005   -0.9907   21.1562 C   0  0  1  0  0  0  0  0  0  0  0  0
    4.1338    1.6576   20.8543 C   0  0  0  0  0  0  0  0  0  0  0  0
   12.9098    0.9079   23.6820 C   0  0  0  0  0  0  0  0  0  0  0  0
    8.8067    0.0602   21.7891 C   0  0  0  0  0  0  0  0  0  0  0  0
    6.0286    0.4055   20.1522 C   0  0  0  0  0  0  0  0  0  0  0  0
    5.8436    0.8245   18.8393 C   0  0  0  0  0  0  0  0  0  0  0  0
    7.7734   -5.2187   26.9712 C   0  0  1  0  0  0  0  0  0  0  0  0
    9.3297   -0.2378   23.0151 N   0  0  0  0  0  0  0  0  0  0  0  0
    9.0617    1.0992   21.1941 O   0  0  0  0  0  0  0  0  0  0  0  0
   10.3008    0.6921   23.5791 C   0  0  2  0  0  0  0  0  0  0  0  0
    8.1506   -1.5567   24.7332 C   0  0  0  0  0  0  0  0  0  0  0  0
    4.7807    1.6646   18.5203 C   0  0  0  0  0  0  0  0  0  0  0  0
    6.8285    0.2654   18.0562 N   0  0  0  0  0  0  0  0  0  0  0  0
    9.6963   -5.3682   26.2371 H   0  0  0  0  0  0  0  0  0  0  0  0
   11.1853   -1.0795   21.6313 H   0  0  0  0  0  0  0  0  0  0  0  0
    5.3623    0.5044   22.2021 H   0  0  0  0  0  0  0  0  0  0  0  0
    7.3339   -2.7579   26.3056 H   0  0  0  0  0  0  0  0  0  0  0  0
   10.5326   -4.5181   24.0735 H   0  0  0  0  0  0  0  0  0  0  0  0
    3.0838    2.7046   19.3066 H   0  0  0  0  0  0  0  0  0  0  0  0
   10.6404   -2.5177   22.6543 H   0  0  0  0  0  0  0  0  0  0  0  0
   15.0372    0.6626   23.3690 H   0  0  0  0  0  0  0  0  0  0  0  0
    7.2273   -1.3957   21.9261 H   0  0  0  0  0  0  0  0  0  0  0  0
    8.5214   -1.8020   20.7482 H   0  0  0  0  0  0  0  0  0  0  0  0
    3.4629    1.9962   21.6301 H   0  0  0  0  0  0  0  0  0  0  0  0
   12.9340    1.6539   24.4626 H   0  0  0  0  0  0  0  0  0  0  0  0
    7.9190   -6.2210   27.4003 H   0  0  0  0  0  0  0  0  0  0  0  0
    7.8125   -4.4673   27.7736 H   0  0  0  0  0  0  0  0  0  0  0  0
    6.7940   -5.1721   26.4726 H   0  0  0  0  0  0  0  0  0  0  0  0
   10.0531    1.7105   23.2451 H   0  0  0  0  0  0  0  0  0  0  0  0
   10.2447    0.6423   24.6765 H   0  0  0  0  0  0  0  0  0  0  0  0
    7.4790   -0.7307   24.9151 H   0  0  0  0  0  0  0  0  0  0  0  0
    4.6251    1.9967   17.5045 H   0  0  0  0  0  0  0  0  0  0  0  0
  1  6  1  0
  1 14  1  0
  2  5  1  0
  2 21  1  0
  2 28  1  0
  3  4  1  0
  3 27  2  0
  4 15  1  0
  4 19  1  0
  5  9  2  0
  5 10  1  0
  6  8  2  0
  6 29  1  0
  7 16  1  0
  7 19  2  0
  7 30  1  0
  8 17  1  0
  8 24  1  0
  9 25  1  0
  9 31  1  0
 10 12  2  0
 10 32  1  0
 11 16  2  0
 11 26  1  0
 11 33  1  0
 12 13  1  0
 12 34  1  0
 13 22  1  0
 13 25  2  0
 14 17  2  0
 14 35  1  0
 15 18  1  0
 15 36  1  1
 15 37  1  0
 16 38  1  0
 17 39  1  0
 18 22  1  0
 18 23  2  0
 19 20  1  0
 20 26  2  0
 20 27  1  0
 21 40  1  1
 21 41  1  0
 21 42  1  0
 22 24  1  0
 24 43  1  6
 24 44  1  0
 25 45  1  0
 26 46  1  0
M  END
$$$$
