LIG(A-306)
     RDKit          3D

 39 42  0  0  1  0  0  0  0  0999 V2000
   13.9756   -1.7315   21.3597 Cl  0  0  0  0  0  0  0  0  0  0  0  0
   12.7431   -1.0713   22.3823 C   0  0  0  0  0  0  0  0  0  0  0  0
   13.0737   -0.1648   23.3677 C   0  0  0  0  0  0  0  0  0  0  0  0
   14.3802    0.0568   23.6478 F   0  0  0  0  0  0  0  0  0  0  0  0
   12.1144    0.4581   24.1260 C   0  0  0  0  0  0  0  0  0  0  0  0
   11.4177   -1.3940   22.1656 C   0  0  0  0  0  0  0  0  0  0  0  0
   10.4095   -0.7942   22.9197 C   0  0  0  0  0  0  0  0  0  0  0  0
   10.7861    0.1390   23.8992 C   0  0  0  0  0  0  0  0  0  0  0  0
    9.8862    0.7753   24.7253 O   0  0  0  0  0  0  0  0  0  0  0  0
    8.4810    0.5631   24.4601 C   0  0  1  0  0  0  0  0  0  0  0  0
    8.1773   -0.8392   23.9961 C   0  0  1  0  0  0  0  0  0  0  0  0
    8.9488   -1.1347   22.6941 C   0  0  1  0  0  0  0  0  0  0  0  0
    8.4712   -0.2763   21.5205 C   0  0  0  0  0  0  0  0  0  0  0  0
    9.1983    0.5564   20.9881 O   0  0  0  0  0  0  0  0  0  0  0  0
    7.1627   -0.4118   21.2089 N   0  0  0  0  0  0  0  0  0  0  0  0
    6.4762   -0.0464   20.0391 C   0  0  0  0  0  0  0  0  0  0  0  0
    6.9872   -0.0961   18.7418 C   0  0  0  0  0  0  0  0  0  0  0  0
    6.4390    0.4726   17.6589 N   0  0  0  0  0  0  0  0  0  0  0  0
    5.3348    1.1774   17.8391 C   0  0  0  0  0  0  0  0  0  0  0  0
    5.2832    0.7211   20.2290 C   0  0  0  0  0  0  0  0  0  0  0  0
    4.7382    0.9914   21.5126 C   0  0  0  0  0  0  0  0  0  0  0  0
    3.7120    1.8725   21.6173 C   0  0  0  0  0  0  0  0  0  0  0  0
    3.2332    2.1602   22.8566 F   0  0  0  0  0  0  0  0  0  0  0  0
    4.7116    1.3666   19.0956 C   0  0  0  0  0  0  0  0  0  0  0  0
    3.6247    2.2527   19.2901 C   0  0  0  0  0  0  0  0  0  0  0  0
    3.1392    2.5025   20.5403 C   0  0  0  0  0  0  0  0  0  0  0  0
   12.3888    1.1796   24.8813 H   0  0  0  0  0  0  0  0  0  0  0  0
   11.1601   -2.1169   21.4058 H   0  0  0  0  0  0  0  0  0  0  0  0
    7.9161    0.7573   25.3838 H   0  0  0  0  0  0  0  0  0  0  0  0
    8.1606    1.2684   23.6792 H   0  0  0  0  0  0  0  0  0  0  0  0
    8.4830   -1.5555   24.7728 H   0  0  0  0  0  0  0  0  0  0  0  0
    7.0974   -0.9374   23.8114 H   0  0  0  0  0  0  0  0  0  0  0  0
    8.8477   -2.2001   22.4399 H   0  0  0  0  0  0  0  0  0  0  0  0
    6.5989   -0.8357   21.9177 H   0  0  0  0  0  0  0  0  0  0  0  0
    7.9076   -0.6423   18.5970 H   0  0  0  0  0  0  0  0  0  0  0  0
    4.8804    1.6371   16.9739 H   0  0  0  0  0  0  0  0  0  0  0  0
    5.1344    0.5035   22.3909 H   0  0  0  0  0  0  0  0  0  0  0  0
    3.1736    2.7376   18.4369 H   0  0  0  0  0  0  0  0  0  0  0  0
    2.3154    3.1865   20.6809 H   0  0  0  0  0  0  0  0  0  0  0  0
  1  2  1  0
  2  3  2  0
  2  6  1  0
  3  4  1  0
  3  5  1  0
  5  8  2  0
  5 27  1  0
  6  7  2  0
  6 28  1  0
  7  8  1  0
  7 12  1  0
  8  9  1  0
  9 10  1  0
 10 11  1  0
 10 29  1  1
 10 30  1  0
 11 12  1  0
 11 31  1  1
 11 32  1  0
 12 13  1  0
 12 33  1  6
 13 14  2  0
 13 15  1  0
 15 16  1  0
 15 34  1  0
 16 17  2  0
 16 20  1  0
 17 18  1  0
 17 35  1  0
 18 19  2  0
 19 24  1  0
 19 36  1  0
 20 21  2  0
 20 24  1  0
 21 22  1  0
 21 37  1  0
 22 23  1  0
 22 26  2  0
 24 25  2  0
 25 26  1  0
 25 38  1  0
 26 39  1  0
M  END
$$$$
