LIG(A-306)
     RDKit          3D

 36 38  0  0  0  0  0  0  0  0999 V2000
   14.0846   -1.5013   21.6124 Cl  0  0  0  0  0  0  0  0  0  0  0  0
   12.7635   -0.8364   22.5327 C   0  0  0  0  0  0  0  0  0  0  0  0
   13.0208    0.1329   23.4791 C   0  0  0  0  0  0  0  0  0  0  0  0
   11.9675    0.6166   24.2369 C   0  0  0  0  0  0  0  0  0  0  0  0
   10.6780    0.1580   24.0146 C   0  0  0  0  0  0  0  0  0  0  0  0
   11.4826   -1.3078   22.3038 C   0  0  0  0  0  0  0  0  0  0  0  0
   10.4178   -0.7864   23.0304 C   0  0  0  0  0  0  0  0  0  0  0  0
    8.9970   -1.1562   22.6698 C   0  0  1  0  0  0  0  0  0  0  0  0
    8.3951   -0.2118   21.6470 C   0  0  0  0  0  0  0  0  0  0  0  0
    8.9314    0.8574   21.3559 O   0  0  0  0  0  0  0  0  0  0  0  0
    7.2620   -0.6596   21.0652 N   0  0  0  0  0  0  0  0  0  0  0  0
    6.5685   -0.0934   19.9751 C   0  0  0  0  0  0  0  0  0  0  0  0
    6.9491   -0.2522   18.6412 C   0  0  0  0  0  0  0  0  0  0  0  0
    6.3240    0.3011   17.5929 N   0  0  0  0  0  0  0  0  0  0  0  0
    5.2700    1.0691   17.8437 C   0  0  0  0  0  0  0  0  0  0  0  0
    5.4292    0.7256   20.2460 C   0  0  0  0  0  0  0  0  0  0  0  0
    4.7689    1.3349   19.1429 C   0  0  0  0  0  0  0  0  0  0  0  0
    3.6380    2.1476   19.3870 C   0  0  0  0  0  0  0  0  0  0  0  0
    3.1619    2.3224   20.6519 C   0  0  0  0  0  0  0  0  0  0  0  0
    4.9092    0.9406   21.5465 C   0  0  0  0  0  0  0  0  0  0  0  0
    3.7796    1.7040   21.7449 C   0  0  0  0  0  0  0  0  0  0  0  0
    3.1579    1.8110   23.0998 C   0  0  0  0  0  0  0  0  0  0  0  0
    2.1925    2.5484   23.3009 O   0  0  0  0  0  0  0  0  0  0  0  0
    3.6766    1.0428   24.0322 O   0  0  0  0  0  0  0  0  0  0  0  0
   14.0231    0.5071   23.6264 H   0  0  0  0  0  0  0  0  0  0  0  0
   12.1512    1.3541   25.0042 H   0  0  0  0  0  0  0  0  0  0  0  0
    9.8654    0.5403   24.6146 H   0  0  0  0  0  0  0  0  0  0  0  0
   11.3109   -2.0764   21.5647 H   0  0  0  0  0  0  0  0  0  0  0  0
    8.9917   -2.1753   22.2557 H   0  0  0  0  0  0  0  0  0  0  0  0
    8.3824   -1.1276   23.5816 H   0  0  0  0  0  0  0  0  0  0  0  0
    6.8672   -1.4923   21.4535 H   0  0  0  0  0  0  0  0  0  0  0  0
    7.8132   -0.8678   18.4388 H   0  0  0  0  0  0  0  0  0  0  0  0
    4.7621    1.5202   17.0041 H   0  0  0  0  0  0  0  0  0  0  0  0
    3.1448    2.6365   18.5599 H   0  0  0  0  0  0  0  0  0  0  0  0
    2.2958    2.9470   20.8130 H   0  0  0  0  0  0  0  0  0  0  0  0
    5.4070    0.4984   22.3968 H   0  0  0  0  0  0  0  0  0  0  0  0
  1  2  1  0
  2  3  2  0
  2  6  1  0
  3  4  1  0
  3 25  1  0
  4  5  2  0
  4 26  1  0
  5  7  1  0
  5 27  1  0
  6  7  2  0
  6 28  1  0
  7  8  1  0
  8  9  1  0
  8 29  1  6
  8 30  1  0
  9 10  2  0
  9 11  1  0
 11 12  1  0
 11 31  1  0
 12 13  2  0
 12 16  1  0
 13 14  1  0
 13 32  1  0
 14 15  2  0
 15 17  1  0
 15 33  1  0
 16 17  2  0
 16 20  1  0
 17 18  1  0
 18 19  2  0
 18 34  1  0
 19 21  1  0
 19 35  1  0
 20 21  2  0
 20 36  1  0
 21 22  1  0
 22 23  2  0
 22 24  1  0
M  CHG  1  24  -1
M  END
$$$$
