LIG(A-306)
     RDKit          3D

 44 47  0  0  1  0  0  0  0  0999 V2000
    9.4556    1.3540   21.2433 O   0  0  0  0  0  0  0  0  0  0  0  0
    9.0069    0.3189   21.7273 C   0  0  0  0  0  0  0  0  0  0  0  0
    7.8799   -0.2793   21.2753 N   0  0  0  0  0  0  0  0  0  0  0  0
    7.0737    0.1956   20.2094 C   0  0  0  0  0  0  0  0  0  0  0  0
    5.9306    0.9894   20.4356 C   0  0  0  0  0  0  0  0  0  0  0  0
    5.6017    1.4743   21.8307 C   0  0  1  0  0  0  0  0  0  0  0  0
    4.1926    2.0501   21.9708 C   0  0  1  0  0  0  0  0  0  0  0  0
    3.8223    2.9451   20.8049 C   0  0  1  0  0  0  0  0  0  0  0  0
    3.8953    2.1841   19.4959 C   0  0  1  0  0  0  0  0  0  0  0  0
    5.1704    1.3944   19.3257 C   0  0  0  0  0  0  0  0  0  0  0  0
    5.6134    1.0235   18.0686 C   0  0  0  0  0  0  0  0  0  0  0  0
    6.7115    0.2977   17.8335 N   0  0  0  0  0  0  0  0  0  0  0  0
    7.4207   -0.1122   18.8944 C   0  0  0  0  0  0  0  0  0  0  0  0
    9.6771   -0.3831   22.9122 C   0  0  1  0  0  0  0  0  0  0  0  0
   11.1851   -0.2158   22.9790 C   0  0  0  0  0  0  0  0  0  0  0  0
   11.9991   -0.9796   22.1399 C   0  0  0  0  0  0  0  0  0  0  0  0
   13.3491   -0.7014   22.0458 C   0  0  0  0  0  0  0  0  0  0  0  0
   14.3291   -1.6342   20.9487 Cl  0  0  0  0  0  0  0  0  0  0  0  0
    9.0092    0.0478   24.2283 C   0  0  1  0  0  0  0  0  0  0  0  0
    9.3609    1.4578   24.4653 N   0  0  0  0  0  0  0  0  0  0  0  0
   10.8950    1.6360   24.9851 S   0  0  1  0  0  0  0  0  0  0  0  0
   11.2267    3.0261   24.9192 O   0  0  0  0  0  0  0  0  0  0  0  0
   11.0172    0.9550   26.2391 O   0  0  0  0  0  0  0  0  0  0  0  0
   11.8040    0.7653   23.7640 C   0  0  0  0  0  0  0  0  0  0  0  0
   13.1609    1.0405   23.6549 C   0  0  0  0  0  0  0  0  0  0  0  0
   13.9360    0.3097   22.7738 C   0  0  0  0  0  0  0  0  0  0  0  0
    7.5930   -1.1230   21.7289 H   0  0  0  0  0  0  0  0  0  0  0  0
    5.6996    0.6261   22.5241 H   0  0  0  0  0  0  0  0  0  0  0  0
    6.3244    2.2571   22.1045 H   0  0  0  0  0  0  0  0  0  0  0  0
    3.4736    1.2192   22.0221 H   0  0  0  0  0  0  0  0  0  0  0  0
    4.1406    2.6377   22.8993 H   0  0  0  0  0  0  0  0  0  0  0  0
    2.7975    3.3181   20.9482 H   0  0  0  0  0  0  0  0  0  0  0  0
    4.5199    3.7948   20.7672 H   0  0  0  0  0  0  0  0  0  0  0  0
    3.0458    1.4867   19.4513 H   0  0  0  0  0  0  0  0  0  0  0  0
    3.8207    2.9062   18.6694 H   0  0  0  0  0  0  0  0  0  0  0  0
    5.0310    1.3428   17.2170 H   0  0  0  0  0  0  0  0  0  0  0  0
    8.3035   -0.7100   18.7224 H   0  0  0  0  0  0  0  0  0  0  0  0
    9.4799   -1.4590   22.7957 H   0  0  0  0  0  0  0  0  0  0  0  0
   11.5732   -1.7882   21.5643 H   0  0  0  0  0  0  0  0  0  0  0  0
    7.9173   -0.0578   24.1469 H   0  0  0  0  0  0  0  0  0  0  0  0
    9.3770   -0.5750   25.0570 H   0  0  0  0  0  0  0  0  0  0  0  0
    8.9698    2.1588   23.8689 H   0  0  0  0  0  0  0  0  0  0  0  0
   13.6076    1.8200   24.2543 H   0  0  0  0  0  0  0  0  0  0  0  0
   14.9872    0.5285   22.6579 H   0  0  0  0  0  0  0  0  0  0  0  0
  1  2  2  0
  2  3  1  0
  2 14  1  0
  3  4  1  0
  3 27  1  0
  4  5  2  0
  4 13  1  0
  5  6  1  0
  5 10  1  0
  6  7  1  0
  6 28  1  1
  6 29  1  0
  7  8  1  0
  7 30  1  1
  7 31  1  0
  8  9  1  0
  8 32  1  1
  8 33  1  0
  9 10  1  0
  9 34  1  1
  9 35  1  0
 10 11  2  0
 11 12  1  0
 11 36  1  0
 12 13  2  0
 13 37  1  0
 14 15  1  0
 14 19  1  0
 14 38  1  6
 15 16  2  0
 15 24  1  0
 16 17  1  0
 16 39  1  0
 17 18  1  0
 17 26  2  0
 19 20  1  0
 19 40  1  6
 19 41  1  0
 21 20  1  6
 20 42  1  0
 21 22  2  0
 21 23  2  0
 21 24  1  0
 24 25  2  0
 25 26  1  0
 25 43  1  0
 26 44  1  0
M  END
$$$$
