LIG(A-306)
     RDKit          3D

 52 56  0  0  1  0  0  0  0  0999 V2000
   14.1251   -1.6001   21.3162 Cl  0  0  0  0  0  0  0  0  0  0  0  0
   12.9448   -0.7611   22.2867 C   0  0  0  0  0  0  0  0  0  0  0  0
   11.6127   -1.1198   22.1870 C   0  0  0  0  0  0  0  0  0  0  0  0
   13.3622    0.2262   23.1479 C   0  0  0  0  0  0  0  0  0  0  0  0
   12.4304    0.8470   23.9576 C   0  0  0  0  0  0  0  0  0  0  0  0
   11.0803    0.4975   23.9039 C   0  0  0  0  0  0  0  0  0  0  0  0
   10.1164    1.1540   24.8673 C   0  0  1  0  0  0  0  0  0  0  0  0
    8.7210    0.9527   24.4668 N   0  0  0  0  0  0  0  0  0  0  0  0
    7.7647    1.8900   24.5829 C   0  0  0  0  0  0  0  0  0  0  0  0
    6.5694    1.6199   24.5478 O   0  0  0  0  0  0  0  0  0  0  0  0
    8.1943    3.2968   24.7391 C   0  0  0  0  0  0  0  0  0  0  0  0
    8.8505    3.9386   25.7911 C   0  0  0  0  0  0  0  0  0  0  0  0
    9.0715    5.2319   25.3348 C   0  0  0  0  0  0  0  0  0  0  0  0
    8.5964    5.4297   24.1096 N   0  0  0  0  0  0  0  0  0  0  0  0
    8.0404    4.2326   23.7614 N   0  0  0  0  0  0  0  0  0  0  0  0
    7.3340    4.1336   22.4896 C   0  0  1  0  0  0  0  0  0  0  0  0
   10.6639   -0.4830   22.9896 C   0  0  0  0  0  0  0  0  0  0  0  0
    9.1898   -0.8292   22.8638 C   0  0  1  0  0  0  0  0  0  0  0  0
    8.4324   -0.4447   24.1357 C   0  0  1  0  0  0  0  0  0  0  0  0
    8.6272   -0.0113   21.7015 C   0  0  0  0  0  0  0  0  0  0  0  0
    9.1327    1.0552   21.3434 O   0  0  0  0  0  0  0  0  0  0  0  0
    7.5387   -0.5578   21.1099 N   0  0  0  0  0  0  0  0  0  0  0  0
    6.8308   -0.0750   19.9863 C   0  0  0  0  0  0  0  0  0  0  0  0
    5.7047    0.7833   20.1947 C   0  0  0  0  0  0  0  0  0  0  0  0
    5.1228    1.0282   21.4643 C   0  0  0  0  0  0  0  0  0  0  0  0
    4.0168    1.8222   21.5920 C   0  0  0  0  0  0  0  0  0  0  0  0
    3.4487    2.4294   20.4768 C   0  0  0  0  0  0  0  0  0  0  0  0
    3.9756    2.2305   19.2329 C   0  0  0  0  0  0  0  0  0  0  0  0
    5.1046    1.3893   19.0545 C   0  0  0  0  0  0  0  0  0  0  0  0
    5.6408    1.0742   17.7822 C   0  0  0  0  0  0  0  0  0  0  0  0
    6.6628    0.2507   17.5866 N   0  0  0  0  0  0  0  0  0  0  0  0
    7.2328   -0.2986   18.6685 C   0  0  0  0  0  0  0  0  0  0  0  0
   11.3079   -1.8882   21.4921 H   0  0  0  0  0  0  0  0  0  0  0  0
   14.4028    0.5121   23.1908 H   0  0  0  0  0  0  0  0  0  0  0  0
   12.7525    1.6161   24.6440 H   0  0  0  0  0  0  0  0  0  0  0  0
   10.2649    0.7225   25.8682 H   0  0  0  0  0  0  0  0  0  0  0  0
   10.3251    2.2335   24.8988 H   0  0  0  0  0  0  0  0  0  0  0  0
    9.1256    3.5215   26.7486 H   0  0  0  0  0  0  0  0  0  0  0  0
    9.5744    5.9932   25.9125 H   0  0  0  0  0  0  0  0  0  0  0  0
    6.2734    3.9085   22.6753 H   0  0  0  0  0  0  0  0  0  0  0  0
    7.4170    5.0880   21.9491 H   0  0  0  0  0  0  0  0  0  0  0  0
    7.7790    3.3297   21.8848 H   0  0  0  0  0  0  0  0  0  0  0  0
    9.0680   -1.9038   22.6627 H   0  0  0  0  0  0  0  0  0  0  0  0
    8.7534   -1.0926   24.9646 H   0  0  0  0  0  0  0  0  0  0  0  0
    7.3518   -0.5678   23.9713 H   0  0  0  0  0  0  0  0  0  0  0  0
    7.1946   -1.4040   21.5167 H   0  0  0  0  0  0  0  0  0  0  0  0
    5.5599    0.5805   22.3445 H   0  0  0  0  0  0  0  0  0  0  0  0
    3.5805    1.9793   22.5674 H   0  0  0  0  0  0  0  0  0  0  0  0
    2.5830    3.0639   20.5959 H   0  0  0  0  0  0  0  0  0  0  0  0
    3.5296    2.7171   18.3782 H   0  0  0  0  0  0  0  0  0  0  0  0
    5.1890    1.5337   16.9154 H   0  0  0  0  0  0  0  0  0  0  0  0
    8.0671   -0.9653   18.5080 H   0  0  0  0  0  0  0  0  0  0  0  0
  1  2  1  0
  2  3  2  0
  2  4  1  0
  3 17  1  0
  3 33  1  0
  4  5  2  0
  4 34  1  0
  5  6  1  0
  5 35  1  0
  6  7  1  0
  6 17  2  0
  7  8  1  0
  7 36  1  1
  7 37  1  0
  8  9  1  0
  8 19  1  0
  9 10  2  0
  9 11  1  0
 11 12  2  0
 11 15  1  0
 12 13  1  0
 12 38  1  0
 13 14  2  0
 13 39  1  0
 14 15  1  0
 15 16  1  0
 16 40  1  1
 16 41  1  0
 16 42  1  0
 17 18  1  0
 18 19  1  0
 18 20  1  0
 18 43  1  6
 19 44  1  1
 19 45  1  0
 20 21  2  0
 20 22  1  0
 22 23  1  0
 22 46  1  0
 23 24  2  0
 23 32  1  0
 24 25  1  0
 24 29  1  0
 25 26  2  0
 25 47  1  0
 26 27  1  0
 26 48  1  0
 27 28  2  0
 27 49  1  0
 28 29  1  0
 28 50  1  0
 29 30  2  0
 30 31  1  0
 30 51  1  0
 31 32  2  0
 32 52  1  0
M  END
$$$$
