LIG(A-305)
     RDKit          3D

 34 35  0  0  0  0  0  0  0  0999 V2000
   11.6161   -4.2448   26.0080 F   0  0  0  0  0  0  0  0  0  0  0  0
   12.1301   -3.2028   25.2830 C   0  0  0  0  0  0  0  0  0  0  0  0
   13.4681   -2.9378   25.3869 C   0  0  0  0  0  0  0  0  0  0  0  0
   13.9800   -1.9088   24.6119 C   0  0  0  0  0  0  0  0  0  0  0  0
   13.1510   -1.1668   23.7799 C   0  0  0  0  0  0  0  0  0  0  0  0
   11.2740   -2.4828   24.4670 C   0  0  0  0  0  0  0  0  0  0  0  0
   11.7880   -1.4308   23.7100 C   0  0  0  0  0  0  0  0  0  0  0  0
   10.8740   -0.5278   22.9170 C   0  0  1  0  0  0  0  0  0  0  0  0
    9.6439   -1.1808   22.2421 C   0  0  1  0  0  0  0  0  0  0  0  0
    8.8809   -0.2028   21.3711 C   0  0  0  0  0  0  0  0  0  0  0  0
    9.3529    0.8912   21.0581 O   0  0  0  0  0  0  0  0  0  0  0  0
    7.6649   -0.6388   20.9532 N   0  0  0  0  0  0  0  0  0  0  0  0
    6.8838   -0.0168   19.9342 C   0  0  0  0  0  0  0  0  0  0  0  0
    5.6928    0.6773   20.2583 C   0  0  0  0  0  0  0  0  0  0  0  0
    5.2069    0.8123   21.6783 C   0  0  1  0  0  0  0  0  0  0  0  0
    7.2897   -0.0378   18.5972 C   0  0  0  0  0  0  0  0  0  0  0  0
    6.6197    0.5582   17.6052 N   0  0  0  0  0  0  0  0  0  0  0  0
    5.4867    1.1942   17.9293 C   0  0  0  0  0  0  0  0  0  0  0  0
    4.9988    1.2813   19.2183 C   0  0  0  0  0  0  0  0  0  0  0  0
   14.1022   -3.5093   26.0485 H   0  0  0  0  0  0  0  0  0  0  0  0
   15.0349   -1.6814   24.6553 H   0  0  0  0  0  0  0  0  0  0  0  0
   13.5713   -0.3738   23.1791 H   0  0  0  0  0  0  0  0  0  0  0  0
   10.2244   -2.7322   24.4177 H   0  0  0  0  0  0  0  0  0  0  0  0
   10.5021    0.2493   23.6010 H   0  0  0  0  0  0  0  0  0  0  0  0
   11.4769   -0.0607   22.1244 H   0  0  0  0  0  0  0  0  0  0  0  0
    9.9863   -2.0188   21.6172 H   0  0  0  0  0  0  0  0  0  0  0  0
    8.9696   -1.5585   23.0247 H   0  0  0  0  0  0  0  0  0  0  0  0
    7.2894   -1.4553   21.3915 H   0  0  0  0  0  0  0  0  0  0  0  0
    5.9660    1.3361   22.2780 H   0  0  0  0  0  0  0  0  0  0  0  0
    4.2688    1.3866   21.6916 H   0  0  0  0  0  0  0  0  0  0  0  0
    5.0309   -0.1875   22.1021 H   0  0  0  0  0  0  0  0  0  0  0  0
    8.1984   -0.5667   18.3505 H   0  0  0  0  0  0  0  0  0  0  0  0
    4.9228    1.6657   17.1380 H   0  0  0  0  0  0  0  0  0  0  0  0
    4.0819    1.8165   19.4166 H   0  0  0  0  0  0  0  0  0  0  0  0
  1  2  1  0
  2  3  2  0
  2  6  1  0
  3  4  1  0
  3 20  1  0
  4  5  2  0
  4 21  1  0
  5  7  1  0
  5 22  1  0
  6  7  2  0
  6 23  1  0
  7  8  1  0
  8  9  1  0
  8 24  1  1
  8 25  1  0
  9 10  1  0
  9 26  1  6
  9 27  1  0
 10 11  2  0
 10 12  1  0
 12 13  1  0
 12 28  1  0
 13 14  2  0
 13 16  1  0
 14 15  1  0
 14 19  1  0
 15 29  1  1
 15 30  1  0
 15 31  1  0
 16 17  2  0
 16 32  1  0
 17 18  1  0
 18 19  2  0
 18 33  1  0
 19 34  1  0
M  END
$$$$
