LIG(A-305)
     RDKit          3D

 30 32  0  0  1  0  0  0  0  0999 V2000
   25.3486  -27.9160   19.6003 Cl  0  0  0  0  0  0  0  0  0  0  0  0
   24.5786  -27.1759   18.2294 C   0  0  0  0  0  0  0  0  0  0  0  0
   24.7725  -27.7279   16.9773 C   0  0  0  0  0  0  0  0  0  0  0  0
   24.1895  -27.1358   15.8704 C   0  0  0  0  0  0  0  0  0  0  0  0
   23.8088  -26.0458   18.4264 C   0  0  0  0  0  0  0  0  0  0  0  0
   23.2228  -25.4327   17.3224 C   0  0  0  0  0  0  0  0  0  0  0  0
   22.4460  -24.2316   17.1235 C   0  0  0  0  0  0  0  0  0  0  0  0
   21.9432  -23.2425   17.9615 C   0  0  0  0  0  0  0  0  0  0  0  0
   21.2853  -22.1604   17.4065 C   0  0  0  0  0  0  0  0  0  0  0  0
   23.4287  -25.9907   16.0464 C   0  0  0  0  0  0  0  0  0  0  0  0
   22.8248  -25.1906   15.0994 N   0  0  0  0  0  0  0  0  0  0  0  0
   22.2410  -24.1145   15.7335 C   0  0  0  0  0  0  0  0  0  0  0  0
   21.5921  -23.0274   15.1745 C   0  0  0  0  0  0  0  0  0  0  0  0
   21.1253  -22.0294   16.0255 C   0  0  0  0  0  0  0  0  0  0  0  0
   20.4934  -20.7863   15.4205 C   0  0  1  0  0  0  0  0  0  0  0  0
   19.7516  -19.9682   16.4586 C   0  0  1  0  0  0  0  0  0  0  0  0
   21.5765  -20.0274   14.6825 C   0  0  0  0  0  0  0  0  0  0  0  0
   21.6124  -20.0364   13.4755 O   0  0  0  0  0  0  0  0  0  0  0  0
   22.4686  -19.4236   15.4365 O   0  0  0  0  0  0  0  0  0  0  0  0
   25.3757  -28.6165   16.8633 H   0  0  0  0  0  0  0  0  0  0  0  0
   24.3252  -27.5589   14.8861 H   0  0  0  0  0  0  0  0  0  0  0  0
   23.6642  -25.6452   19.4189 H   0  0  0  0  0  0  0  0  0  0  0  0
   22.0649  -23.3185   19.0319 H   0  0  0  0  0  0  0  0  0  0  0  0
   20.8852  -21.3972   18.0575 H   0  0  0  0  0  0  0  0  0  0  0  0
   22.8125  -25.3628   14.1145 H   0  0  0  0  0  0  0  0  0  0  0  0
   21.4516  -22.9552   14.1061 H   0  0  0  0  0  0  0  0  0  0  0  0
   19.7569  -21.1205   14.6750 H   0  0  0  0  0  0  0  0  0  0  0  0
   19.3111  -19.0808   15.9805 H   0  0  0  0  0  0  0  0  0  0  0  0
   18.9527  -20.5791   16.9043 H   0  0  0  0  0  0  0  0  0  0  0  0
   20.4526  -19.6510   17.2448 H   0  0  0  0  0  0  0  0  0  0  0  0
  1  2  1  0
  2  3  2  0
  2  5  1  0
  3  4  1  0
  3 20  1  0
  4 10  2  0
  4 21  1  0
  5  6  2  0
  5 22  1  0
  6  7  1  0
  6 10  1  0
  7  8  2  0
  7 12  1  0
  8  9  1  0
  8 23  1  0
  9 14  2  0
  9 24  1  0
 10 11  1  0
 11 12  1  0
 11 25  1  0
 12 13  2  0
 13 14  1  0
 13 26  1  0
 14 15  1  0
 15 16  1  0
 15 17  1  0
 15 27  1  6
 16 28  1  6
 16 29  1  0
 16 30  1  0
 17 18  2  0
 17 19  1  0
M  CHG  1  19  -1
M  END
$$$$
