LIG(A-305)
     RDKit          3D

 41 43  0  0  1  0  0  0  0  0999 V2000
    7.1826   -0.3935   18.1672 O   0  0  0  0  0  0  0  0  0  0  0  0
    6.5546   -0.3074   19.2163 C   0  0  0  0  0  0  0  0  0  0  0  0
    5.4957    0.6996   19.3843 C   0  0  0  0  0  0  0  0  0  0  0  0
    4.9616    1.5066   17.9803 S   0  0  0  0  0  0  0  0  0  0  0  0
    3.8547    2.4347   18.8793 C   0  0  0  0  0  0  0  0  0  0  0  0
    3.8817    2.1347   20.1933 C   0  0  0  0  0  0  0  0  0  0  0  0
    4.8147    1.1327   20.5073 C   0  0  0  0  0  0  0  0  0  0  0  0
    6.8256   -1.0704   20.3203 N   0  0  0  0  0  0  0  0  0  0  0  0
    7.8486   -2.0304   20.3933 C   0  0  2  0  0  0  0  0  0  0  0  0
    7.5585   -3.3104   19.8273 C   0  0  0  0  0  0  0  0  0  0  0  0
    6.5285   -3.6184   19.2634 O   0  0  0  0  0  0  0  0  0  0  0  0
    9.0706   -1.7614   21.0092 C   0  0  1  0  0  0  0  0  0  0  0  0
    9.5007   -0.5504   21.6291 C   0  0  0  0  0  0  0  0  0  0  0  0
    8.5898    0.9266   21.6431 S   0  0  0  0  0  0  0  0  0  0  0  0
    9.7938    1.7186   22.6201 C   0  0  0  0  0  0  0  0  0  0  0  0
   10.8468    0.8695   22.9080 C   0  0  0  0  0  0  0  0  0  0  0  0
   10.6757   -0.4075   22.3401 C   0  0  0  0  0  0  0  0  0  0  0  0
    9.6389    3.0176   23.0110 N   0  0  0  0  0  0  0  0  0  0  0  0
   10.4720    3.4726   24.1350 C   0  0  1  0  0  0  0  0  0  0  0  0
   10.6310    4.9756   24.0789 C   0  0  1  0  0  0  0  0  0  0  0  0
    9.3600    5.6366   24.0310 O   0  0  0  0  0  0  0  0  0  0  0  0
    8.6090    5.2276   22.8730 C   0  0  1  0  0  0  0  0  0  0  0  0
    8.3619    3.7376   22.8731 C   0  0  2  0  0  0  0  0  0  0  0  0
    3.2039    3.1799   18.4462 H   0  0  0  0  0  0  0  0  0  0  0  0
    3.2520    2.6147   20.9278 H   0  0  0  0  0  0  0  0  0  0  0  0
    4.9799    0.7480   21.5028 H   0  0  0  0  0  0  0  0  0  0  0  0
    6.2559   -0.9348   21.1309 H   0  0  0  0  0  0  0  0  0  0  0  0
    8.2504   -1.6867   19.4287 H   0  0  0  0  0  0  0  0  0  0  0  0
    8.3222   -4.0698   19.9084 H   0  0  0  0  0  0  0  0  0  0  0  0
    9.1562   -2.5224   21.7989 H   0  0  0  0  0  0  0  0  0  0  0  0
    9.8223   -1.9557   20.2299 H   0  0  0  0  0  0  0  0  0  0  0  0
   11.7034    1.1538   23.5014 H   0  0  0  0  0  0  0  0  0  0  0  0
   11.3979   -1.2029   22.4505 H   0  0  0  0  0  0  0  0  0  0  0  0
    9.9909    3.1913   25.0834 H   0  0  0  0  0  0  0  0  0  0  0  0
   11.4622    2.9980   24.0712 H   0  0  0  0  0  0  0  0  0  0  0  0
   11.1750    5.3112   24.9742 H   0  0  0  0  0  0  0  0  0  0  0  0
   11.2061    5.2409   23.1796 H   0  0  0  0  0  0  0  0  0  0  0  0
    7.6413    5.7507   22.8712 H   0  0  0  0  0  0  0  0  0  0  0  0
    9.1727    5.4967   21.9676 H   0  0  0  0  0  0  0  0  0  0  0  0
    7.7035    3.4772   23.7149 H   0  0  0  0  0  0  0  0  0  0  0  0
    7.8802    3.4478   21.9276 H   0  0  0  0  0  0  0  0  0  0  0  0
  1  2  2  0
  2  3  1  0
  2  8  1  0
  3  4  1  0
  3  7  2  0
  4  5  1  0
  5  6  2  0
  5 24  1  0
  6  7  1  0
  6 25  1  0
  7 26  1  0
  8  9  1  0
  8 27  1  0
  9 10  1  0
  9 12  1  0
  9 28  1  6
 10 11  2  0
 10 29  1  0
 12 13  1  0
 12 30  1  1
 12 31  1  0
 13 14  1  0
 13 17  2  0
 14 15  1  0
 15 16  2  0
 15 18  1  0
 16 17  1  0
 16 32  1  0
 17 33  1  0
 18 19  1  0
 18 23  1  0
 19 20  1  0
 19 34  1  1
 19 35  1  0
 20 21  1  0
 20 36  1  1
 20 37  1  0
 21 22  1  0
 22 23  1  0
 22 38  1  6
 22 39  1  0
 23 40  1  1
 23 41  1  0
M  END
$$$$
