LIG(A-305)
     RDKit          3D

 24 24  0  0  0  0  0  0  0  0999 V2000
    6.2082   -5.0304   19.6803 N   0  0  1  0  0  0  0  0  0  0  0  0
    7.1283   -4.1614   19.8982 C   0  0  1  0  0  0  0  0  0  0  0  0
    7.0214   -3.3854   21.1842 C   0  0  0  0  0  0  0  0  0  0  0  0
    8.1215   -2.6965   21.5372 N   0  0  0  0  0  0  0  0  0  0  0  0
    8.0346   -1.9985   22.6622 C   0  0  0  0  0  0  0  0  0  0  0  0
    9.1226   -1.3555   23.1371 O   0  0  0  0  0  0  0  0  0  0  0  0
   10.3306   -1.4086   22.3661 C   0  0  1  0  0  0  0  0  0  0  0  0
    6.8896   -1.9494   23.4432 C   0  0  0  0  0  0  0  0  0  0  0  0
    5.8664   -3.4493   21.8783 N   0  0  0  0  0  0  0  0  0  0  0  0
    5.8455   -2.7563   23.0143 C   0  0  0  0  0  0  0  0  0  0  0  0
    4.8526   -2.8932   23.9193 O   0  0  0  0  0  0  0  0  0  0  0  0
    3.7785   -3.7872   23.6144 C   0  0  1  0  0  0  0  0  0  0  0  0
    6.5804   -5.7807   19.1338 H   0  0  0  0  0  0  0  0  0  0  0  0
    5.8738   -5.3874   20.5524 H   0  0  0  0  0  0  0  0  0  0  0  0
    5.4538   -4.5997   19.1851 H   0  0  0  0  0  0  0  0  0  0  0  0
    8.0933   -4.6894   19.9045 H   0  0  0  0  0  0  0  0  0  0  0  0
    7.1108   -3.4395   19.0685 H   0  0  0  0  0  0  0  0  0  0  0  0
   11.1200   -0.8416   22.8809 H   0  0  0  0  0  0  0  0  0  0  0  0
   10.6467   -2.4559   22.2518 H   0  0  0  0  0  0  0  0  0  0  0  0
   10.1516   -0.9693   21.3737 H   0  0  0  0  0  0  0  0  0  0  0  0
    6.8159   -1.3272   24.3229 H   0  0  0  0  0  0  0  0  0  0  0  0
    3.0552   -3.7884   24.4432 H   0  0  0  0  0  0  0  0  0  0  0  0
    3.2782   -3.4577   22.6918 H   0  0  0  0  0  0  0  0  0  0  0  0
    4.1760   -4.8031   23.4733 H   0  0  0  0  0  0  0  0  0  0  0  0
  1  2  1  0
  1 13  1  6
  1 14  1  0
  1 15  1  0
  2  3  1  0
  2 16  1  1
  2 17  1  0
  3  4  2  0
  3  9  1  0
  4  5  1  0
  5  6  1  0
  5  8  2  0
  6  7  1  0
  7 18  1  1
  7 19  1  0
  7 20  1  0
  8 10  1  0
  8 21  1  0
  9 10  2  0
 10 11  1  0
 11 12  1  0
 12 22  1  1
 12 23  1  0
 12 24  1  0
M  CHG  1   1   1
M  END
$$$$
