LIG(A-306)
     RDKit          3D

 50 52  0  0  0  0  0  0  0  0999 V2000
   14.1106   -1.6441   21.5479 Cl  0  0  0  0  0  0  0  0  0  0  0  0
   12.8049   -0.9424   22.4623 C   0  0  0  0  0  0  0  0  0  0  0  0
   13.0852    0.0144   23.4201 C   0  0  0  0  0  0  0  0  0  0  0  0
   12.0383    0.5308   24.1686 C   0  0  0  0  0  0  0  0  0  0  0  0
   10.7355    0.1160   23.9281 C   0  0  0  0  0  0  0  0  0  0  0  0
   11.5147   -1.3697   22.2184 C   0  0  0  0  0  0  0  0  0  0  0  0
   10.4587   -0.8213   22.9390 C   0  0  0  0  0  0  0  0  0  0  0  0
    9.0358   -1.1824   22.5855 C   0  0  1  0  0  0  0  0  0  0  0  0
    8.4750   -0.2716   21.5119 C   0  0  0  0  0  0  0  0  0  0  0  0
    9.0122    0.7953   21.2120 O   0  0  0  0  0  0  0  0  0  0  0  0
    7.3526   -0.7264   20.9231 N   0  0  0  0  0  0  0  0  0  0  0  0
    6.6200   -0.1054   19.8928 C   0  0  0  0  0  0  0  0  0  0  0  0
    6.8914   -0.2601   18.5320 C   0  0  0  0  0  0  0  0  0  0  0  0
    6.2314    0.3583   17.5440 N   0  0  0  0  0  0  0  0  0  0  0  0
    5.2468    1.1822   17.8829 C   0  0  0  0  0  0  0  0  0  0  0  0
    4.8608    1.4570   19.2183 C   0  0  0  0  0  0  0  0  0  0  0  0
    5.5694    0.7910   20.2601 C   0  0  0  0  0  0  0  0  0  0  0  0
    5.2260    1.0901   21.6038 C   0  0  0  0  0  0  0  0  0  0  0  0
    4.2387    1.9840   21.8971 C   0  0  0  0  0  0  0  0  0  0  0  0
    3.8404    2.3783   19.5556 C   0  0  0  0  0  0  0  0  0  0  0  0
    3.5471    2.6252   20.8751 C   0  0  0  0  0  0  0  0  0  0  0  0
    2.5797    3.4915   21.3284 O   0  0  0  0  0  0  0  0  0  0  0  0
    1.9220    4.3400   20.3736 C   0  0  1  0  0  0  0  0  0  0  0  0
    0.9534    5.2484   21.1071 C   0  0  1  0  0  0  0  0  0  0  0  0
    1.4395    6.4191   21.8636 N   0  0  2  0  0  0  0  0  0  0  0  0
    2.7329    6.9374   21.4054 C   0  0  1  0  0  0  0  0  0  0  0  0
    1.4758    6.1528   23.3023 C   0  0  1  0  0  0  0  0  0  0  0  0
   14.0981    0.3525   23.5819 H   0  0  0  0  0  0  0  0  0  0  0  0
   12.2373    1.2585   24.9415 H   0  0  0  0  0  0  0  0  0  0  0  0
    9.9277    0.5260   24.5161 H   0  0  0  0  0  0  0  0  0  0  0  0
   11.3263   -2.1265   21.4713 H   0  0  0  0  0  0  0  0  0  0  0  0
    9.0118   -2.2198   22.2207 H   0  0  0  0  0  0  0  0  0  0  0  0
    8.4119   -1.0962   23.4873 H   0  0  0  0  0  0  0  0  0  0  0  0
    7.0003   -1.6019   21.2539 H   0  0  0  0  0  0  0  0  0  0  0  0
    7.6935   -0.9284   18.2553 H   0  0  0  0  0  0  0  0  0  0  0  0
    4.7050    1.6750   17.0891 H   0  0  0  0  0  0  0  0  0  0  0  0
    5.7556    0.6015   22.4082 H   0  0  0  0  0  0  0  0  0  0  0  0
    3.9930    2.1949   22.9275 H   0  0  0  0  0  0  0  0  0  0  0  0
    3.2927    2.8870   18.7760 H   0  0  0  0  0  0  0  0  0  0  0  0
    2.6697    4.9486   19.8440 H   0  0  0  0  0  0  0  0  0  0  0  0
    1.3717    3.7224   19.6484 H   0  0  0  0  0  0  0  0  0  0  0  0
    0.2509    5.6322   20.3526 H   0  0  0  0  0  0  0  0  0  0  0  0
    0.4111    4.6147   21.8243 H   0  0  0  0  0  0  0  0  0  0  0  0
    0.7707    7.1489   21.7221 H   0  0  0  0  0  0  0  0  0  0  0  0
    3.0195    7.8040   22.0193 H   0  0  0  0  0  0  0  0  0  0  0  0
    3.4971    6.1520   21.5006 H   0  0  0  0  0  0  0  0  0  0  0  0
    2.6524    7.2448   20.3524 H   0  0  0  0  0  0  0  0  0  0  0  0
    1.8419    7.0448   23.8317 H   0  0  0  0  0  0  0  0  0  0  0  0
    0.4633    5.9070   23.6552 H   0  0  0  0  0  0  0  0  0  0  0  0
    2.1492    5.3061   23.5014 H   0  0  0  0  0  0  0  0  0  0  0  0
  1  2  1  0
  2  3  2  0
  2  6  1  0
  3  4  1  0
  3 28  1  0
  4  5  2  0
  4 29  1  0
  5  7  1  0
  5 30  1  0
  6  7  2  0
  6 31  1  0
  7  8  1  0
  8  9  1  0
  8 32  1  6
  8 33  1  0
  9 10  2  0
  9 11  1  0
 11 12  1  0
 11 34  1  0
 12 13  2  0
 12 17  1  0
 13 14  1  0
 13 35  1  0
 14 15  2  0
 15 16  1  0
 15 36  1  0
 16 17  2  0
 16 20  1  0
 17 18  1  0
 18 19  2  0
 18 37  1  0
 19 21  1  0
 19 38  1  0
 20 21  2  0
 20 39  1  0
 21 22  1  0
 22 23  1  0
 23 24  1  0
 23 40  1  6
 23 41  1  0
 24 25  1  0
 24 42  1  6
 24 43  1  0
 25 26  1  0
 25 27  1  0
 25 44  1  1
 26 45  1  1
 26 46  1  0
 26 47  1  0
 27 48  1  1
 27 49  1  0
 27 50  1  0
M  CHG  1  25   1
M  END
$$$$
