LIG(A-306)
     RDKit          3D

 41 44  0  0  1  0  0  0  0  0999 V2000
   -9.6904    0.7508  -21.2090 O   0  0  0  0  0  0  0  0  0  0  0  0
   -9.2271   -0.2264  -21.7740 C   0  0  0  0  0  0  0  0  0  0  0  0
   -9.9080   -0.8086  -23.0089 C   0  0  2  0  0  0  0  0  0  0  0  0
  -11.4209   -0.6552  -22.9495 C   0  0  0  0  0  0  0  0  0  0  0  0
  -12.0748    0.2722  -23.7520 C   0  0  0  0  0  0  0  0  0  0  0  0
  -13.4413    0.4749  -23.6311 C   0  0  0  0  0  0  0  0  0  0  0  0
  -14.1780   -0.2519  -22.7064 C   0  0  0  0  0  0  0  0  0  0  0  0
  -12.1662   -1.4178  -22.0543 C   0  0  0  0  0  0  0  0  0  0  0  0
  -13.5265   -1.1999  -21.9396 C   0  0  0  0  0  0  0  0  0  0  0  0
  -14.4407   -2.1408  -20.7912 Cl  0  0  0  0  0  0  0  0  0  0  0  0
   -8.0457   -0.7976  -21.3710 N   0  0  0  0  0  0  0  0  0  0  0  0
   -7.5425   -2.1176  -21.7995 C   0  0  1  0  0  0  0  0  0  0  0  0
   -8.0198   -2.4567  -23.1967 C   0  0  1  0  0  0  0  0  0  0  0  0
   -9.5272   -2.2642  -23.2969 C   0  0  2  0  0  0  0  0  0  0  0  0
   -7.3138   -0.2321  -20.2782 C   0  0  0  0  0  0  0  0  0  0  0  0
   -6.2178    0.6554  -20.4767 C   0  0  0  0  0  0  0  0  0  0  0  0
   -5.7378    1.0519  -21.7546 C   0  0  0  0  0  0  0  0  0  0  0  0
   -4.6589    1.8816  -21.8742 C   0  0  0  0  0  0  0  0  0  0  0  0
   -4.0146    2.3717  -20.7449 C   0  0  0  0  0  0  0  0  0  0  0  0
   -4.4461    2.0311  -19.4930 C   0  0  0  0  0  0  0  0  0  0  0  0
   -5.5510    1.1608  -19.3237 C   0  0  0  0  0  0  0  0  0  0  0  0
   -6.0275    0.7514  -18.0517 C   0  0  0  0  0  0  0  0  0  0  0  0
   -7.0511   -0.0761  -17.8723 N   0  0  0  0  0  0  0  0  0  0  0  0
   -7.6661   -0.5474  -18.9680 C   0  0  0  0  0  0  0  0  0  0  0  0
   -9.5627   -0.2165  -23.8692 H   0  0  0  0  0  0  0  0  0  0  0  0
  -11.5125    0.8413  -24.4776 H   0  0  0  0  0  0  0  0  0  0  0  0
  -13.9346    1.2017  -24.2594 H   0  0  0  0  0  0  0  0  0  0  0  0
  -15.2377   -0.0806  -22.5884 H   0  0  0  0  0  0  0  0  0  0  0  0
  -11.6846   -2.1750  -21.4533 H   0  0  0  0  0  0  0  0  0  0  0  0
   -6.4426   -2.1033  -21.7893 H   0  0  0  0  0  0  0  0  0  0  0  0
   -7.9057   -2.8848  -21.0999 H   0  0  0  0  0  0  0  0  0  0  0  0
   -7.5199   -1.7975  -23.9217 H   0  0  0  0  0  0  0  0  0  0  0  0
   -7.7712   -3.5044  -23.4216 H   0  0  0  0  0  0  0  0  0  0  0  0
   -9.8585   -2.5300  -24.3117 H   0  0  0  0  0  0  0  0  0  0  0  0
  -10.0241   -2.9188  -22.5658 H   0  0  0  0  0  0  0  0  0  0  0  0
   -6.2333    0.6918  -22.6441 H   0  0  0  0  0  0  0  0  0  0  0  0
   -4.3036    2.1592  -22.8556 H   0  0  0  0  0  0  0  0  0  0  0  0
   -3.1644    3.0282  -20.8572 H   0  0  0  0  0  0  0  0  0  0  0  0
   -3.9402    2.4290  -18.6258 H   0  0  0  0  0  0  0  0  0  0  0  0
   -5.5273    1.1362  -17.1753 H   0  0  0  0  0  0  0  0  0  0  0  0
   -8.4968   -1.2220  -18.8230 H   0  0  0  0  0  0  0  0  0  0  0  0
  1  2  2  0
  2  3  1  0
  2 11  1  0
  3  4  1  0
  3 14  1  0
  3 25  1  6
  4  5  2  0
  4  8  1  0
  5  6  1  0
  5 26  1  0
  6  7  2  0
  6 27  1  0
  7  9  1  0
  7 28  1  0
  8  9  2  0
  8 29  1  0
  9 10  1  0
 11 12  1  0
 11 15  1  0
 12 13  1  0
 12 30  1  6
 12 31  1  0
 13 14  1  0
 13 32  1  6
 13 33  1  0
 14 34  1  6
 14 35  1  0
 15 16  2  0
 15 24  1  0
 16 17  1  0
 16 21  1  0
 17 18  2  0
 17 36  1  0
 18 19  1  0
 18 37  1  0
 19 20  2  0
 19 38  1  0
 20 21  1  0
 20 39  1  0
 21 22  2  0
 22 23  1  0
 22 40  1  0
 23 24  2  0
 24 41  1  0
M  END
$$$$
