LIG(A-305)
     RDKit          3D

 35 36  0  0  1  0  0  0  0  0999 V2000
   14.3366   -1.8986   20.4281 N   0  0  0  0  0  0  0  0  0  0  0  0
   13.6326   -1.4826   21.2261 C   0  0  0  0  0  0  0  0  0  0  0  0
   12.7056   -0.9765   22.2071 C   0  0  0  0  0  0  0  0  0  0  0  0
   13.1385   -0.0964   23.1970 C   0  0  0  0  0  0  0  0  0  0  0  0
   12.2195    0.4516   24.0790 C   0  0  0  0  0  0  0  0  0  0  0  0
   10.8705    0.1525   23.9531 C   0  0  0  0  0  0  0  0  0  0  0  0
   11.3556   -1.3046   22.1092 C   0  0  0  0  0  0  0  0  0  0  0  0
   10.4256   -0.7266   22.9681 C   0  0  0  0  0  0  0  0  0  0  0  0
    8.9456   -1.0448   22.7912 C   0  0  1  0  0  0  0  0  0  0  0  0
    8.1236   -0.8407   24.0702 C   0  0  1  0  0  0  0  0  0  0  0  0
    8.4615   -0.2029   21.6072 C   0  0  0  0  0  0  0  0  0  0  0  0
    9.1114    0.7461   21.1791 O   0  0  0  0  0  0  0  0  0  0  0  0
    7.2795   -0.5760   21.0792 N   0  0  0  0  0  0  0  0  0  0  0  0
    6.6634    0.0989   20.0112 C   0  0  0  0  0  0  0  0  0  0  0  0
    5.5044    0.8588   20.2352 C   0  0  0  0  0  0  0  0  0  0  0  0
    4.9944    1.1539   21.6241 C   0  0  1  0  0  0  0  0  0  0  0  0
    4.8663    1.3827   19.1211 C   0  0  0  0  0  0  0  0  0  0  0  0
    5.3993    1.1646   17.8661 C   0  0  0  0  0  0  0  0  0  0  0  0
    6.5343    0.4847   17.6502 N   0  0  0  0  0  0  0  0  0  0  0  0
    7.1514   -0.0352   18.7122 C   0  0  0  0  0  0  0  0  0  0  0  0
   14.1851    0.1576   23.2769 H   0  0  0  0  0  0  0  0  0  0  0  0
   12.5543    1.1122   24.8651 H   0  0  0  0  0  0  0  0  0  0  0  0
   10.1577    0.6061   24.6258 H   0  0  0  0  0  0  0  0  0  0  0  0
   11.0283   -2.0122   21.3617 H   0  0  0  0  0  0  0  0  0  0  0  0
    8.8613   -2.1036   22.5054 H   0  0  0  0  0  0  0  0  0  0  0  0
    7.0699   -1.0870   23.8727 H   0  0  0  0  0  0  0  0  0  0  0  0
    8.5110   -1.4970   24.8635 H   0  0  0  0  0  0  0  0  0  0  0  0
    8.2008    0.2083   24.3920 H   0  0  0  0  0  0  0  0  0  0  0  0
    6.8171   -1.3734   21.4668 H   0  0  0  0  0  0  0  0  0  0  0  0
    5.7610    1.7067   22.1870 H   0  0  0  0  0  0  0  0  0  0  0  0
    4.0796    1.7610   21.5574 H   0  0  0  0  0  0  0  0  0  0  0  0
    4.7705    0.2090   22.1408 H   0  0  0  0  0  0  0  0  0  0  0  0
    3.9589    1.9572   19.2342 H   0  0  0  0  0  0  0  0  0  0  0  0
    4.8730    1.5637   17.0117 H   0  0  0  0  0  0  0  0  0  0  0  0
    8.0689   -0.5838   18.5592 H   0  0  0  0  0  0  0  0  0  0  0  0
  1  2  3  0
  2  3  1  0
  3  4  2  0
  3  7  1  0
  4  5  1  0
  4 21  1  0
  5  6  2  0
  5 22  1  0
  6  8  1  0
  6 23  1  0
  7  8  2  0
  7 24  1  0
  8  9  1  0
  9 10  1  0
  9 11  1  0
  9 25  1  6
 10 26  1  6
 10 27  1  0
 10 28  1  0
 11 12  2  0
 11 13  1  0
 13 14  1  0
 13 29  1  0
 14 15  2  0
 14 20  1  0
 15 16  1  0
 15 17  1  0
 16 30  1  1
 16 31  1  0
 16 32  1  0
 17 18  2  0
 17 33  1  0
 18 19  1  0
 18 34  1  0
 19 20  2  0
 20 35  1  0
M  END
$$$$
