LIG(A-305)
     RDKit          3D

 36 37  0  0  0  0  0  0  0  0999 V2000
    6.7686   -4.2375   21.3426 N   0  0  0  0  0  0  0  0  0  0  0  0
    7.0315   -3.0665   19.1896 C   0  0  1  0  0  0  0  0  0  0  0  0
    5.6313   -4.9414   19.5248 O   0  0  0  0  0  0  0  0  0  0  0  0
    6.4235   -4.1605   20.0347 C   0  0  0  0  0  0  0  0  0  0  0  0
    6.8580    0.5185   28.7186 C   0  0  0  0  0  0  0  0  0  0  0  0
    5.9150    1.3786   28.2047 C   0  0  0  0  0  0  0  0  0  0  0  0
    5.2578    1.0567   27.0398 C   0  0  0  0  0  0  0  0  0  0  0  0
    5.5386   -0.1294   26.3788 C   0  0  0  0  0  0  0  0  0  0  0  0
    6.1117   -5.1654   22.2757 C   0  0  1  0  0  0  0  0  0  0  0  0
    5.5109   -4.4124   23.4588 C   0  0  1  0  0  0  0  0  0  0  0  0
    6.5760   -3.5605   24.1366 C   0  0  1  0  0  0  0  0  0  0  0  0
    7.1930   -2.6165   23.1146 C   0  0  1  0  0  0  0  0  0  0  0  0
    7.8058   -3.4196   21.9785 C   0  0  1  0  0  0  0  0  0  0  0  0
    6.8564   -2.3095   26.2416 C   0  0  0  0  0  0  0  0  0  0  0  0
    6.4836   -1.0125   26.8916 C   0  0  0  0  0  0  0  0  0  0  0  0
    7.1458   -0.6695   28.0666 C   0  0  0  0  0  0  0  0  0  0  0  0
    6.0463   -2.7974   25.2727 N   0  0  0  0  0  0  0  0  0  0  0  0
    7.9024   -2.8786   26.5525 O   0  0  0  0  0  0  0  0  0  0  0  0
    6.6439   -3.1376   18.1625 H   0  0  0  0  0  0  0  0  0  0  0  0
    6.7680   -2.0864   19.6138 H   0  0  0  0  0  0  0  0  0  0  0  0
    8.1256   -3.1784   19.1769 H   0  0  0  0  0  0  0  0  0  0  0  0
    7.3752    0.7702   29.6327 H   0  0  0  0  0  0  0  0  0  0  0  0
    5.6914    2.3040   28.7145 H   0  0  0  0  0  0  0  0  0  0  0  0
    4.5178    1.7326   26.6373 H   0  0  0  0  0  0  0  0  0  0  0  0
    5.0214   -0.3688   25.4614 H   0  0  0  0  0  0  0  0  0  0  0  0
    5.3107   -5.7021   21.7460 H   0  0  0  0  0  0  0  0  0  0  0  0
    6.8533   -5.8877   22.6475 H   0  0  0  0  0  0  0  0  0  0  0  0
    4.6991   -3.7620   23.1010 H   0  0  0  0  0  0  0  0  0  0  0  0
    5.1088   -5.1357   24.1834 H   0  0  0  0  0  0  0  0  0  0  0  0
    7.3675   -4.2319   24.5009 H   0  0  0  0  0  0  0  0  0  0  0  0
    6.4135   -1.9521   22.7135 H   0  0  0  0  0  0  0  0  0  0  0  0
    7.9750   -2.0136   23.5993 H   0  0  0  0  0  0  0  0  0  0  0  0
    8.5957   -4.0736   22.3764 H   0  0  0  0  0  0  0  0  0  0  0  0
    8.2378   -2.7329   21.2356 H   0  0  0  0  0  0  0  0  0  0  0  0
    7.8915   -1.3361   28.4742 H   0  0  0  0  0  0  0  0  0  0  0  0
    5.0616   -2.6336   25.3328 H   0  0  0  0  0  0  0  0  0  0  0  0
  1  4  1  0
  1  9  1  0
  1 13  1  0
  2  4  1  0
  2 19  1  6
  2 20  1  0
  2 21  1  0
  3  4  2  0
  5  6  2  0
  5 16  1  0
  5 22  1  0
  6  7  1  0
  6 23  1  0
  7  8  2  0
  7 24  1  0
  8 15  1  0
  8 25  1  0
  9 10  1  0
  9 26  1  6
  9 27  1  0
 10 11  1  0
 10 28  1  6
 10 29  1  0
 11 12  1  0
 11 17  1  0
 11 30  1  1
 12 13  1  0
 12 31  1  6
 12 32  1  0
 13 33  1  1
 13 34  1  0
 14 15  1  0
 14 17  1  0
 14 18  2  0
 15 16  2  0
 16 35  1  0
 17 36  1  0
M  END
$$$$
