LIG(A-306)
     RDKit          3D

 55 59  0  0  1  0  0  0  0  0999 V2000
    9.3211    1.5023   21.4289 O   0  0  0  0  0  0  0  0  0  0  0  0
    8.9603    0.4061   21.8269 C   0  0  0  0  0  0  0  0  0  0  0  0
    7.9396   -0.3348   21.3031 N   0  0  0  0  0  0  0  0  0  0  0  0
    7.0955    0.0539   20.2069 C   0  0  0  0  0  0  0  0  0  0  0  0
    5.9096    0.8244   20.4100 C   0  0  0  0  0  0  0  0  0  0  0  0
    5.4187    1.2041   21.6858 C   0  0  0  0  0  0  0  0  0  0  0  0
    4.3094    1.9893   21.8069 C   0  0  0  0  0  0  0  0  0  0  0  0
    3.6328    2.4419   20.6810 C   0  0  0  0  0  0  0  0  0  0  0  0
    4.0522    2.0915   19.4313 C   0  0  0  0  0  0  0  0  0  0  0  0
    5.1943    1.2696   19.2581 C   0  0  0  0  0  0  0  0  0  0  0  0
    5.6872    0.8880   17.9834 C   0  0  0  0  0  0  0  0  0  0  0  0
    6.7725    0.1505   17.7993 N   0  0  0  0  0  0  0  0  0  0  0  0
    7.4418   -0.2460   18.8920 C   0  0  0  0  0  0  0  0  0  0  0  0
    7.7680   -1.6269   21.9878 C   0  0  1  0  0  0  0  0  0  0  0  0
    9.0917   -1.8174   22.7247 C   0  0  1  0  0  0  0  0  0  0  0  0
    9.5622   -0.3710   23.0101 C   0  0  1  0  0  0  0  0  0  0  0  0
   11.0944   -0.2334   23.0829 C   0  0  0  0  0  0  0  0  0  0  0  0
   11.9127   -1.0039   22.2564 C   0  0  0  0  0  0  0  0  0  0  0  0
   13.2543   -0.6891   22.1539 C   0  0  0  0  0  0  0  0  0  0  0  0
   14.2312   -1.5395   20.9924 Cl  0  0  0  0  0  0  0  0  0  0  0  0
   13.8197    0.3263   22.8935 C   0  0  0  0  0  0  0  0  0  0  0  0
   13.0259    1.0378   23.7713 C   0  0  0  0  0  0  0  0  0  0  0  0
   11.6610    0.7732   23.8808 C   0  0  0  0  0  0  0  0  0  0  0  0
   10.8374    1.5648   24.8679 C   0  0  1  0  0  0  0  0  0  0  0  0
    8.9288    0.1961   24.3066 C   0  0  1  0  0  0  0  0  0  0  0  0
    9.4051    1.5604   24.5307 N   0  0  1  0  0  0  0  0  0  0  0  0
    8.6229    2.4403   25.3922 C   0  0  1  0  0  0  0  0  0  0  0  0
    7.7103    3.3813   24.6256 C   0  0  0  0  0  0  0  0  0  0  0  0
    6.6232    3.7130   25.0900 O   0  0  0  0  0  0  0  0  0  0  0  0
    8.1311    3.7841   23.4297 N   0  0  0  0  0  0  0  0  0  0  0  0
    7.2819    4.5236   22.5145 C   0  0  1  0  0  0  0  0  0  0  0  0
    5.9309    0.8666   22.5747 H   0  0  0  0  0  0  0  0  0  0  0  0
    3.9533    2.2622   22.7892 H   0  0  0  0  0  0  0  0  0  0  0  0
    2.7668    3.0768   20.7964 H   0  0  0  0  0  0  0  0  0  0  0  0
    3.5096    2.4432   18.5663 H   0  0  0  0  0  0  0  0  0  0  0  0
    5.1448    1.2188   17.1101 H   0  0  0  0  0  0  0  0  0  0  0  0
    8.3245   -0.8492   18.7389 H   0  0  0  0  0  0  0  0  0  0  0  0
    6.9262   -1.5887   22.6949 H   0  0  0  0  0  0  0  0  0  0  0  0
    7.6013   -2.4372   21.2628 H   0  0  0  0  0  0  0  0  0  0  0  0
    8.9428   -2.3738   23.6618 H   0  0  0  0  0  0  0  0  0  0  0  0
    9.8191   -2.3495   22.0939 H   0  0  0  0  0  0  0  0  0  0  0  0
   11.5026   -1.8361   21.7034 H   0  0  0  0  0  0  0  0  0  0  0  0
   14.8684    0.5623   22.7883 H   0  0  0  0  0  0  0  0  0  0  0  0
   13.4687    1.8107   24.3822 H   0  0  0  0  0  0  0  0  0  0  0  0
   10.9665    1.1262   25.8684 H   0  0  0  0  0  0  0  0  0  0  0  0
   11.1960    2.6047   24.8743 H   0  0  0  0  0  0  0  0  0  0  0  0
    7.8334    0.2028   24.2059 H   0  0  0  0  0  0  0  0  0  0  0  0
    9.2147   -0.4361   25.1602 H   0  0  0  0  0  0  0  0  0  0  0  0
    9.3617    1.9907   23.6290 H   0  0  0  0  0  0  0  0  0  0  0  0
    8.0040    1.8184   26.0557 H   0  0  0  0  0  0  0  0  0  0  0  0
    9.3167    3.0432   25.9965 H   0  0  0  0  0  0  0  0  0  0  0  0
    9.0672    3.5692   23.1511 H   0  0  0  0  0  0  0  0  0  0  0  0
    7.8412    4.7470   21.5940 H   0  0  0  0  0  0  0  0  0  0  0  0
    6.3959    3.9202   22.2678 H   0  0  0  0  0  0  0  0  0  0  0  0
    6.9645    5.4644   22.9879 H   0  0  0  0  0  0  0  0  0  0  0  0
  1  2  2  0
  2  3  1  0
 16  2  1  6
  3  4  1  0
  3 14  1  0
  4  5  2  0
  4 13  1  0
  5  6  1  0
  5 10  1  0
  6  7  2  0
  6 32  1  0
  7  8  1  0
  7 33  1  0
  8  9  2  0
  8 34  1  0
  9 10  1  0
  9 35  1  0
 10 11  2  0
 11 12  1  0
 11 36  1  0
 12 13  2  0
 13 37  1  0
 14 15  1  0
 14 38  1  1
 14 39  1  0
 15 16  1  0
 15 40  1  1
 15 41  1  0
 16 17  1  0
 16 25  1  0
 17 18  2  0
 17 23  1  0
 18 19  1  0
 18 42  1  0
 19 20  1  0
 19 21  2  0
 21 22  1  0
 21 43  1  0
 22 23  2  0
 22 44  1  0
 23 24  1  0
 24 26  1  0
 24 45  1  1
 24 46  1  0
 25 26  1  0
 25 47  1  6
 25 48  1  0
 26 27  1  0
 26 49  1  6
 27 28  1  0
 27 50  1  1
 27 51  1  0
 28 29  2  0
 28 30  1  0
 30 31  1  0
 30 52  1  0
 31 53  1  6
 31 54  1  0
 31 55  1  0
M  CHG  1  26   1
M  END
$$$$
