LIG(A-306)
     RDKit          3D

 58 61  0  0  1  0  0  0  0  0999 V2000
   13.9855   -1.8347   21.4475 Cl  0  0  0  0  0  0  0  0  0  0  0  0
   12.8413   -0.8789   22.3524 C   0  0  0  0  0  0  0  0  0  0  0  0
   11.4984   -1.1851   22.2695 C   0  0  0  0  0  0  0  0  0  0  0  0
   13.3022    0.1222   23.1724 C   0  0  0  0  0  0  0  0  0  0  0  0
   12.4011    0.8011   23.9724 C   0  0  0  0  0  0  0  0  0  0  0  0
   11.0401    0.5039   23.9404 C   0  0  0  0  0  0  0  0  0  0  0  0
   10.1430    1.2128   24.9334 C   0  0  1  0  0  0  0  0  0  0  0  0
    8.7111    0.9866   24.6964 N   0  0  0  0  0  0  0  0  0  0  0  0
    7.5309    1.9704   25.1463 S   0  0  2  0  0  0  0  0  0  0  0  0
    7.6879    2.1855   26.5423 O   0  0  0  0  0  0  0  0  0  0  0  0
    6.3110    1.4632   24.6214 O   0  0  0  0  0  0  0  0  0  0  0  0
    7.8797    3.3324   24.3943 N   0  0  0  0  0  0  0  0  0  0  0  0
    7.4607    3.4833   22.9983 C   0  0  1  0  0  0  0  0  0  0  0  0
    8.5095    4.5326   24.9912 C   0  0  1  0  0  0  0  0  0  0  0  0
    7.5483    5.6824   25.1841 C   0  0  1  0  0  0  0  0  0  0  0  0
    6.7514    5.4334   26.3182 O   0  0  0  0  0  0  0  0  0  0  0  0
    7.1042    6.2665   27.4071 C   0  0  1  0  0  0  0  0  0  0  0  0
   10.5803   -0.4832   23.0534 C   0  0  0  0  0  0  0  0  0  0  0  0
    9.0943   -0.7434   22.9015 C   0  0  1  0  0  0  0  0  0  0  0  0
    8.3433   -0.3395   24.1675 C   0  0  1  0  0  0  0  0  0  0  0  0
    8.5732   -0.0046   21.6674 C   0  0  0  0  0  0  0  0  0  0  0  0
    9.1440    0.9815   21.2074 O   0  0  0  0  0  0  0  0  0  0  0  0
    7.4393   -0.5198   21.1395 N   0  0  0  0  0  0  0  0  0  0  0  0
    6.7142   -0.0520   20.0245 C   0  0  0  0  0  0  0  0  0  0  0  0
    5.5631    0.7638   20.2534 C   0  0  0  0  0  0  0  0  0  0  0  0
    5.0750    1.0968   21.5434 C   0  0  0  0  0  0  0  0  0  0  0  0
    3.9809    1.8997   21.6964 C   0  0  0  0  0  0  0  0  0  0  0  0
    3.3168    2.4095   20.5884 C   0  0  0  0  0  0  0  0  0  0  0  0
    3.7458    2.1175   19.3254 C   0  0  0  0  0  0  0  0  0  0  0  0
    4.8770    1.2897   19.1214 C   0  0  0  0  0  0  0  0  0  0  0  0
    5.3790    0.9637   17.8384 C   0  0  0  0  0  0  0  0  0  0  0  0
    6.4431    0.2009   17.6244 N   0  0  0  0  0  0  0  0  0  0  0  0
    7.0812   -0.2850   18.6985 C   0  0  0  0  0  0  0  0  0  0  0  0
   11.1592   -1.9634   21.6019 H   0  0  0  0  0  0  0  0  0  0  0  0
   14.3520    0.3753   23.1921 H   0  0  0  0  0  0  0  0  0  0  0  0
   12.7590    1.5760   24.6341 H   0  0  0  0  0  0  0  0  0  0  0  0
   10.3896    0.8535   25.9434 H   0  0  0  0  0  0  0  0  0  0  0  0
   10.3398    2.2933   24.8704 H   0  0  0  0  0  0  0  0  0  0  0  0
    7.7733    4.4699   22.6256 H   0  0  0  0  0  0  0  0  0  0  0  0
    7.9279    2.6961   22.3882 H   0  0  0  0  0  0  0  0  0  0  0  0
    6.3661    3.3968   22.9328 H   0  0  0  0  0  0  0  0  0  0  0  0
    8.9247    4.2570   25.9719 H   0  0  0  0  0  0  0  0  0  0  0  0
    9.3225    4.8653   24.3292 H   0  0  0  0  0  0  0  0  0  0  0  0
    8.1140    6.6146   25.3293 H   0  0  0  0  0  0  0  0  0  0  0  0
    6.9057    5.7780   24.2964 H   0  0  0  0  0  0  0  0  0  0  0  0
    6.4587    6.0385   28.2681 H   0  0  0  0  0  0  0  0  0  0  0  0
    8.1550    6.0883   27.6795 H   0  0  0  0  0  0  0  0  0  0  0  0
    6.9736    7.3202   27.1199 H   0  0  0  0  0  0  0  0  0  0  0  0
    8.9463   -1.8219   22.7434 H   0  0  0  0  0  0  0  0  0  0  0  0
    8.5507   -1.0896   24.9448 H   0  0  0  0  0  0  0  0  0  0  0  0
    7.2667   -0.3335   23.9418 H   0  0  0  0  0  0  0  0  0  0  0  0
    7.0709   -1.3302   21.5950 H   0  0  0  0  0  0  0  0  0  0  0  0
    5.5766    0.7094   22.4179 H   0  0  0  0  0  0  0  0  0  0  0  0
    3.6287    2.1404   22.6886 H   0  0  0  0  0  0  0  0  0  0  0  0
    2.4530    3.0428   20.7269 H   0  0  0  0  0  0  0  0  0  0  0  0
    3.2180    2.5215   18.4742 H   0  0  0  0  0  0  0  0  0  0  0  0
    4.8620    1.3620   16.9779 H   0  0  0  0  0  0  0  0  0  0  0  0
    7.9476   -0.9057   18.5238 H   0  0  0  0  0  0  0  0  0  0  0  0
  1  2  1  0
  2  3  2  0
  2  4  1  0
  3 18  1  0
  3 34  1  0
  4  5  2  0
  4 35  1  0
  5  6  1  0
  5 36  1  0
  6  7  1  0
  6 18  2  0
  7  8  1  0
  7 37  1  1
  7 38  1  0
  8  9  1  0
  8 20  1  0
  9 10  2  0
  9 11  2  0
  9 12  1  6
 12 13  1  0
 12 14  1  0
 13 39  1  6
 13 40  1  0
 13 41  1  0
 14 15  1  0
 14 42  1  1
 14 43  1  0
 15 16  1  0
 15 44  1  1
 15 45  1  0
 16 17  1  0
 17 46  1  1
 17 47  1  0
 17 48  1  0
 18 19  1  0
 19 20  1  0
 19 21  1  0
 19 49  1  6
 20 50  1  1
 20 51  1  0
 21 22  2  0
 21 23  1  0
 23 24  1  0
 23 52  1  0
 24 25  2  0
 24 33  1  0
 25 26  1  0
 25 30  1  0
 26 27  2  0
 26 53  1  0
 27 28  1  0
 27 54  1  0
 28 29  2  0
 28 55  1  0
 29 30  1  0
 29 56  1  0
 30 31  2  0
 31 32  1  0
 31 57  1  0
 32 33  2  0
 33 58  1  0
M  END
$$$$
