LIG(A-306)
     RDKit          3D

 54 57  0  0  1  0  0  0  0  0999 V2000
   10.6040    1.9227   24.2109 C   0  0  1  0  0  0  0  0  0  0  0  0
    9.3171    1.5133   24.4579 N   0  0  2  0  0  0  0  0  0  0  0  0
    8.4519    2.3331   25.2860 C   0  0  1  0  0  0  0  0  0  0  0  0
    7.7446    3.4979   24.6140 C   0  0  0  0  0  0  0  0  0  0  0  0
    7.0304    4.2537   25.2701 O   0  0  0  0  0  0  0  0  0  0  0  0
    7.8935    3.6220   23.2990 N   0  0  0  0  0  0  0  0  0  0  0  0
    7.0353    4.4768   22.4991 C   0  0  1  0  0  0  0  0  0  0  0  0
   11.4542    0.9889   23.4599 C   0  0  0  0  0  0  0  0  0  0  0  0
   12.7982    1.3043   23.2619 C   0  0  0  0  0  0  0  0  0  0  0  0
   13.6254    0.4366   22.5738 C   0  0  0  0  0  0  0  0  0  0  0  0
   13.1037   -0.7416   22.0868 C   0  0  0  0  0  0  0  0  0  0  0  0
   14.1640   -1.8753   21.3007 Cl  0  0  0  0  0  0  0  0  0  0  0  0
   11.7658   -1.0629   22.2348 C   0  0  0  0  0  0  0  0  0  0  0  0
   10.9165   -0.1812   22.9079 C   0  0  0  0  0  0  0  0  0  0  0  0
    9.4296   -0.4636   23.0009 C   0  0  1  0  0  0  0  0  0  0  0  0
    8.8815    0.1222   24.3009 C   0  0  2  0  0  0  0  0  0  0  0  0
    8.7384    0.2453   21.8329 C   0  0  0  0  0  0  0  0  0  0  0  0
    9.2161    1.2454   21.2979 O   0  0  0  0  0  0  0  0  0  0  0  0
    7.5546   -0.3001   21.4499 N   0  0  0  0  0  0  0  0  0  0  0  0
    6.7304    0.1108   20.3730 C   0  0  0  0  0  0  0  0  0  0  0  0
    5.5222    0.8634   20.5750 C   0  0  0  0  0  0  0  0  0  0  0  0
    4.9062    1.1342   21.8500 C   0  0  0  0  0  0  0  0  0  0  0  0
    5.3754    0.5713   23.1670 C   0  0  1  0  0  0  0  0  0  0  0  0
    3.7740    1.9219   21.8881 C   0  0  0  0  0  0  0  0  0  0  0  0
    3.1958    2.4508   20.7481 C   0  0  0  0  0  0  0  0  0  0  0  0
    3.7298    2.1940   19.5251 C   0  0  0  0  0  0  0  0  0  0  0  0
    4.8901    1.3923   19.4030 C   0  0  0  0  0  0  0  0  0  0  0  0
    5.4671    1.0915   18.1420 C   0  0  0  0  0  0  0  0  0  0  0  0
    6.5623    0.3708   17.9700 N   0  0  0  0  0  0  0  0  0  0  0  0
    7.1684   -0.0981   19.0659 C   0  0  0  0  0  0  0  0  0  0  0  0
   10.5527    2.8616   23.6401 H   0  0  0  0  0  0  0  0  0  0  0  0
   11.0878    2.1094   25.1810 H   0  0  0  0  0  0  0  0  0  0  0  0
    8.9419    1.8288   23.5864 H   0  0  0  0  0  0  0  0  0  0  0  0
    7.6778    1.6752   25.7078 H   0  0  0  0  0  0  0  0  0  0  0  0
    9.0666    2.7448   26.1000 H   0  0  0  0  0  0  0  0  0  0  0  0
    8.6220    3.1088   22.8451 H   0  0  0  0  0  0  0  0  0  0  0  0
    7.3427    4.4219   21.4444 H   0  0  0  0  0  0  0  0  0  0  0  0
    5.9921    4.1413   22.5947 H   0  0  0  0  0  0  0  0  0  0  0  0
    7.1204    5.5151   22.8521 H   0  0  0  0  0  0  0  0  0  0  0  0
   13.1948    2.2316   23.6482 H   0  0  0  0  0  0  0  0  0  0  0  0
   14.6665    0.6789   22.4202 H   0  0  0  0  0  0  0  0  0  0  0  0
   11.3810   -1.9886   21.8330 H   0  0  0  0  0  0  0  0  0  0  0  0
    9.2389   -1.5460   22.9580 H   0  0  0  0  0  0  0  0  0  0  0  0
    7.7823    0.0868   24.2793 H   0  0  0  0  0  0  0  0  0  0  0  0
    9.2509   -0.4714   25.1501 H   0  0  0  0  0  0  0  0  0  0  0  0
    7.2286   -1.0776   21.9877 H   0  0  0  0  0  0  0  0  0  0  0  0
    6.4113    0.8902   23.3545 H   0  0  0  0  0  0  0  0  0  0  0  0
    4.7265    0.9398   23.9752 H   0  0  0  0  0  0  0  0  0  0  0  0
    5.3305   -0.5273   23.1328 H   0  0  0  0  0  0  0  0  0  0  0  0
    3.3213    2.1339   22.8455 H   0  0  0  0  0  0  0  0  0  0  0  0
    2.3154    3.0710   20.8304 H   0  0  0  0  0  0  0  0  0  0  0  0
    3.2659    2.6043   18.6403 H   0  0  0  0  0  0  0  0  0  0  0  0
    4.9773    1.4785   17.2607 H   0  0  0  0  0  0  0  0  0  0  0  0
    8.0657   -0.6831   18.9280 H   0  0  0  0  0  0  0  0  0  0  0  0
  1  2  1  0
  1  8  1  0
  1 31  1  6
  1 32  1  0
  2  3  1  0
  2 16  1  0
  2 33  1  6
  3  4  1  0
  3 34  1  1
  3 35  1  0
  4  5  2  0
  4  6  1  0
  6  7  1  0
  6 36  1  0
  7 37  1  6
  7 38  1  0
  7 39  1  0
  8  9  2  0
  8 14  1  0
  9 10  1  0
  9 40  1  0
 10 11  2  0
 10 41  1  0
 11 12  1  0
 11 13  1  0
 13 14  2  0
 13 42  1  0
 14 15  1  0
 15 16  1  0
 15 17  1  0
 15 43  1  1
 16 44  1  6
 16 45  1  0
 17 18  2  0
 17 19  1  0
 19 20  1  0
 19 46  1  0
 20 21  2  0
 20 30  1  0
 21 22  1  0
 21 27  1  0
 22 23  1  0
 22 24  2  0
 23 47  1  1
 23 48  1  0
 23 49  1  0
 24 25  1  0
 24 50  1  0
 25 26  2  0
 25 51  1  0
 26 27  1  0
 26 52  1  0
 27 28  2  0
 28 29  1  0
 28 53  1  0
 29 30  2  0
 30 54  1  0
M  CHG  1   2   1
M  END
$$$$
