LIG(A-305)
     RDKit          3D

 36 37  0  0  0  0  0  0  0  0999 V2000
    7.1423   -2.4953   18.5559 C   0  0  1  0  0  0  0  0  0  0  0  0
    6.5914   -3.2662   19.7420 C   0  0  0  0  0  0  0  0  0  0  0  0
    5.8283   -4.2041   19.5692 O   0  0  0  0  0  0  0  0  0  0  0  0
    7.0817   -2.9603   20.9599 N   0  0  0  0  0  0  0  0  0  0  0  0
    7.1228   -4.0162   21.9860 C   0  0  1  0  0  0  0  0  0  0  0  0
    6.9301   -3.4412   23.3850 C   0  0  1  0  0  0  0  0  0  0  0  0
    7.8209   -1.7173   21.2458 C   0  0  1  0  0  0  0  0  0  0  0  0
    7.5832   -1.2553   22.6748 C   0  0  1  0  0  0  0  0  0  0  0  0
    7.8642   -2.3353   23.6308 N   0  0  2  0  0  0  0  0  0  0  0  0
    9.2722   -2.7744   23.5835 C   0  0  1  0  0  0  0  0  0  0  0  0
   10.2674   -1.6805   23.8933 C   0  0  0  0  0  0  0  0  0  0  0  0
   11.3842   -1.4837   23.0861 C   0  0  0  0  0  0  0  0  0  0  0  0
   12.2574   -0.4518   23.3729 C   0  0  0  0  0  0  0  0  0  0  0  0
   13.7402   -0.3209   22.4676 Cl  0  0  0  0  0  0  0  0  0  0  0  0
   12.0337    0.4243   24.4160 C   0  0  0  0  0  0  0  0  0  0  0  0
   10.0567   -0.8335   24.9753 C   0  0  0  0  0  0  0  0  0  0  0  0
   10.9238    0.2184   25.2212 C   0  0  0  0  0  0  0  0  0  0  0  0
   10.6611    1.0515   26.2662 O   0  0  0  0  0  0  0  0  0  0  0  0
    6.7452   -2.9231   17.6235 H   0  0  0  0  0  0  0  0  0  0  0  0
    6.8410   -1.4402   18.6327 H   0  0  0  0  0  0  0  0  0  0  0  0
    8.2402   -2.5637   18.5522 H   0  0  0  0  0  0  0  0  0  0  0  0
    6.3217   -4.7426   21.7842 H   0  0  0  0  0  0  0  0  0  0  0  0
    8.0978   -4.5232   21.9387 H   0  0  0  0  0  0  0  0  0  0  0  0
    5.8991   -3.0702   23.4829 H   0  0  0  0  0  0  0  0  0  0  0  0
    7.1067   -4.2335   24.1274 H   0  0  0  0  0  0  0  0  0  0  0  0
    8.8962   -1.8974   21.1007 H   0  0  0  0  0  0  0  0  0  0  0  0
    7.4839   -0.9317   20.5534 H   0  0  0  0  0  0  0  0  0  0  0  0
    8.2430   -0.4022   22.8916 H   0  0  0  0  0  0  0  0  0  0  0  0
    6.5337   -0.9437   22.7823 H   0  0  0  0  0  0  0  0  0  0  0  0
    7.6862   -1.9836   24.5498 H   0  0  0  0  0  0  0  0  0  0  0  0
    9.4072   -3.5829   24.3171 H   0  0  0  0  0  0  0  0  0  0  0  0
    9.4817   -3.1569   22.5736 H   0  0  0  0  0  0  0  0  0  0  0  0
   11.5669   -2.1324   22.2422 H   0  0  0  0  0  0  0  0  0  0  0  0
   12.7061    1.2491   24.6002 H   0  0  0  0  0  0  0  0  0  0  0  0
    9.2119   -0.9965   25.6282 H   0  0  0  0  0  0  0  0  0  0  0  0
   10.8112    1.9510   26.0002 H   0  0  0  0  0  0  0  0  0  0  0  0
  1  2  1  0
  1 19  1  6
  1 20  1  0
  1 21  1  0
  2  3  2  0
  2  4  1  0
  4  5  1  0
  4  7  1  0
  5  6  1  0
  5 22  1  6
  5 23  1  0
  6  9  1  0
  6 24  1  6
  6 25  1  0
  7  8  1  0
  7 26  1  1
  7 27  1  0
  8  9  1  0
  8 28  1  1
  8 29  1  0
  9 10  1  0
  9 30  1  1
 10 11  1  0
 10 31  1  1
 10 32  1  0
 11 12  2  0
 11 16  1  0
 12 13  1  0
 12 33  1  0
 13 14  1  0
 13 15  2  0
 15 17  1  0
 15 34  1  0
 16 17  2  0
 16 35  1  0
 17 18  1  0
 18 36  1  0
M  CHG  1   9   1
M  END
$$$$
