LIG(A-305)
     RDKit          3D

 41 42  0  0  0  0  0  0  0  0999 V2000
    9.3303    0.5123   20.9792 O   0  0  0  0  0  0  0  0  0  0  0  0
    8.5922   -0.3346   21.4772 C   0  0  0  0  0  0  0  0  0  0  0  0
    7.3582   -0.6426   21.0113 N   0  0  0  0  0  0  0  0  0  0  0  0
    6.6731   -0.0265   19.9324 C   0  0  0  0  0  0  0  0  0  0  0  0
    5.5062    0.7256   20.1785 C   0  0  0  0  0  0  0  0  0  0  0  0
    4.9183    0.8666   21.5575 C   0  0  1  0  0  0  0  0  0  0  0  0
    4.9062    1.3466   19.0905 C   0  0  0  0  0  0  0  0  0  0  0  0
    5.4651    1.2116   17.8365 C   0  0  0  0  0  0  0  0  0  0  0  0
    6.5660    0.4965   17.5884 N   0  0  0  0  0  0  0  0  0  0  0  0
    7.1490   -0.1116   18.6244 C   0  0  0  0  0  0  0  0  0  0  0  0
    9.0093   -1.1107   22.7162 C   0  0  1  0  0  0  0  0  0  0  0  0
   10.4093   -0.8958   23.0761 N   0  0  2  0  0  0  0  0  0  0  0  0
   11.2122   -2.0688   22.7071 C   0  0  1  0  0  0  0  0  0  0  0  0
   12.6823   -1.8539   23.0469 C   0  0  1  0  0  0  0  0  0  0  0  0
   10.5535   -0.6188   24.5181 C   0  0  1  0  0  0  0  0  0  0  0  0
   12.0215   -0.3959   24.8830 C   0  0  1  0  0  0  0  0  0  0  0  0
   12.8224   -1.5589   24.4739 N   0  0  0  0  0  0  0  0  0  0  0  0
   13.5414   -2.3480   25.3059 C   0  0  0  0  0  0  0  0  0  0  0  0
   14.6344   -2.0020   25.7058 O   0  0  0  0  0  0  0  0  0  0  0  0
   12.9563   -3.6609   25.7119 C   0  0  1  0  0  0  0  0  0  0  0  0
    6.8778   -1.3847   21.4787 H   0  0  0  0  0  0  0  0  0  0  0  0
    5.6557    1.3369   22.2247 H   0  0  0  0  0  0  0  0  0  0  0  0
    4.0157    1.4935   21.5089 H   0  0  0  0  0  0  0  0  0  0  0  0
    4.6537   -0.1276   21.9466 H   0  0  0  0  0  0  0  0  0  0  0  0
    4.0081    1.9313   19.2254 H   0  0  0  0  0  0  0  0  0  0  0  0
    4.9854    1.7123   17.0084 H   0  0  0  0  0  0  0  0  0  0  0  0
    8.0356   -0.7000   18.4396 H   0  0  0  0  0  0  0  0  0  0  0  0
    8.3774   -0.7931   23.5588 H   0  0  0  0  0  0  0  0  0  0  0  0
    8.8560   -2.1833   22.5268 H   0  0  0  0  0  0  0  0  0  0  0  0
   10.7509   -0.1054   22.5676 H   0  0  0  0  0  0  0  0  0  0  0  0
   10.8406   -2.9463   23.2565 H   0  0  0  0  0  0  0  0  0  0  0  0
   11.1152   -2.2452   21.6257 H   0  0  0  0  0  0  0  0  0  0  0  0
   13.2502   -2.7643   22.8046 H   0  0  0  0  0  0  0  0  0  0  0  0
   13.0736   -1.0103   22.4593 H   0  0  0  0  0  0  0  0  0  0  0  0
    9.9776    0.2836   24.7715 H   0  0  0  0  0  0  0  0  0  0  0  0
   10.1652   -1.4742   25.0904 H   0  0  0  0  0  0  0  0  0  0  0  0
   12.3929    0.5020   24.3673 H   0  0  0  0  0  0  0  0  0  0  0  0
   12.1097   -0.2570   25.9706 H   0  0  0  0  0  0  0  0  0  0  0  0
   13.6572   -4.1849   26.3784 H   0  0  0  0  0  0  0  0  0  0  0  0
   12.0062   -3.4913   26.2396 H   0  0  0  0  0  0  0  0  0  0  0  0
   12.7743   -4.2736   24.8168 H   0  0  0  0  0  0  0  0  0  0  0  0
  1  2  2  0
  2  3  1  0
  2 11  1  0
  3  4  1  0
  3 21  1  0
  4  5  2  0
  4 10  1  0
  5  6  1  0
  5  7  1  0
  6 22  1  1
  6 23  1  0
  6 24  1  0
  7  8  2  0
  7 25  1  0
  8  9  1  0
  8 26  1  0
  9 10  2  0
 10 27  1  0
 11 12  1  0
 11 28  1  1
 11 29  1  0
 12 13  1  0
 12 15  1  0
 12 30  1  6
 13 14  1  0
 13 31  1  1
 13 32  1  0
 14 17  1  0
 14 33  1  6
 14 34  1  0
 15 16  1  0
 15 35  1  1
 15 36  1  0
 16 17  1  0
 16 37  1  6
 16 38  1  0
 17 18  1  0
 18 19  2  0
 18 20  1  0
 20 39  1  1
 20 40  1  0
 20 41  1  0
M  CHG  1  12   1
M  END
$$$$
