LIG(A-305)
     RDKit          3D

 45 47  0  0  0  0  0  0  0  0999 V2000
    6.0060   -4.2638   19.5824 O   0  0  0  0  0  0  0  0  0  0  0  0
    6.6080   -3.2028   19.6484 C   0  0  0  0  0  0  0  0  0  0  0  0
    7.1589   -2.5298   18.4043 C   0  0  1  0  0  0  0  0  0  0  0  0
    6.8510   -2.5927   20.8254 N   0  0  0  0  0  0  0  0  0  0  0  0
    7.6700   -1.3917   20.9943 C   0  0  1  0  0  0  0  0  0  0  0  0
    8.9460   -1.7736   21.7012 C   0  0  1  0  0  0  0  0  0  0  0  0
    8.6451   -2.3916   23.0092 N   0  0  1  0  0  0  0  0  0  0  0  0
    7.7392   -3.5526   22.8743 C   0  0  1  0  0  0  0  0  0  0  0  0
    6.4801   -3.1867   22.1114 C   0  0  1  0  0  0  0  0  0  0  0  0
    9.9012   -2.7816   23.6962 C   0  0  1  0  0  0  0  0  0  0  0  0
   10.9351   -1.6595   23.6931 C   0  0  0  0  0  0  0  0  0  0  0  0
   10.9032   -0.6485   24.6471 C   0  0  0  0  0  0  0  0  0  0  0  0
   11.8531    0.3625   24.6400 C   0  0  0  0  0  0  0  0  0  0  0  0
   12.8461    0.3795   23.6719 C   0  0  0  0  0  0  0  0  0  0  0  0
   12.8801   -0.6115   22.7060 C   0  0  0  0  0  0  0  0  0  0  0  0
   11.9351   -1.6285   22.7210 C   0  0  0  0  0  0  0  0  0  0  0  0
    9.6433   -3.5095   25.0152 C   0  0  0  0  0  0  0  0  0  0  0  0
   10.1823   -4.7755   25.2222 C   0  0  0  0  0  0  0  0  0  0  0  0
    9.8684   -5.5015   26.3603 C   0  0  0  0  0  0  0  0  0  0  0  0
    9.0204   -4.9685   27.3143 C   0  0  0  0  0  0  0  0  0  0  0  0
    8.4944   -3.7035   27.1333 C   0  0  0  0  0  0  0  0  0  0  0  0
    8.8093   -2.9745   25.9923 C   0  0  0  0  0  0  0  0  0  0  0  0
    6.9230   -3.1414   17.5210 H   0  0  0  0  0  0  0  0  0  0  0  0
    6.7031   -1.5348   18.2935 H   0  0  0  0  0  0  0  0  0  0  0  0
    8.2500   -2.4250   18.4970 H   0  0  0  0  0  0  0  0  0  0  0  0
    7.9063   -0.9630   20.0092 H   0  0  0  0  0  0  0  0  0  0  0  0
    7.1215   -0.6508   21.5945 H   0  0  0  0  0  0  0  0  0  0  0  0
    9.5032   -2.4911   21.0810 H   0  0  0  0  0  0  0  0  0  0  0  0
    9.5571   -0.8726   21.8581 H   0  0  0  0  0  0  0  0  0  0  0  0
    8.1858   -1.7069   23.5751 H   0  0  0  0  0  0  0  0  0  0  0  0
    8.2638   -4.3551   22.3352 H   0  0  0  0  0  0  0  0  0  0  0  0
    7.4595   -3.9068   23.8775 H   0  0  0  0  0  0  0  0  0  0  0  0
    5.8935   -2.4623   22.6955 H   0  0  0  0  0  0  0  0  0  0  0  0
    5.8786   -4.0914   21.9388 H   0  0  0  0  0  0  0  0  0  0  0  0
   10.3416   -3.5529   23.0472 H   0  0  0  0  0  0  0  0  0  0  0  0
   10.1305   -0.6503   25.4017 H   0  0  0  0  0  0  0  0  0  0  0  0
   11.8194    1.1384   25.3904 H   0  0  0  0  0  0  0  0  0  0  0  0
   13.5898    1.1627   23.6717 H   0  0  0  0  0  0  0  0  0  0  0  0
   13.6417   -0.5935   21.9405 H   0  0  0  0  0  0  0  0  0  0  0  0
   11.9747   -2.4048   21.9713 H   0  0  0  0  0  0  0  0  0  0  0  0
   10.8528   -5.1970   24.4879 H   0  0  0  0  0  0  0  0  0  0  0  0
   10.2872   -6.4867   26.5027 H   0  0  0  0  0  0  0  0  0  0  0  0
    8.7705   -5.5386   28.1969 H   0  0  0  0  0  0  0  0  0  0  0  0
    7.8377   -3.2807   27.8792 H   0  0  0  0  0  0  0  0  0  0  0  0
    8.4024   -1.9825   25.8627 H   0  0  0  0  0  0  0  0  0  0  0  0
  1  2  2  0
  2  3  1  0
  2  4  1  0
  3 23  1  6
  3 24  1  0
  3 25  1  0
  4  5  1  0
  4  9  1  0
  5  6  1  0
  5 26  1  6
  5 27  1  0
  6  7  1  0
  6 28  1  6
  6 29  1  0
  7  8  1  0
  7 10  1  0
  7 30  1  1
  8  9  1  0
  8 31  1  6
  8 32  1  0
  9 33  1  1
  9 34  1  0
 10 11  1  0
 10 17  1  0
 10 35  1  6
 11 12  2  0
 11 16  1  0
 12 13  1  0
 12 36  1  0
 13 14  2  0
 13 37  1  0
 14 15  1  0
 14 38  1  0
 15 16  2  0
 15 39  1  0
 16 40  1  0
 17 18  2  0
 17 22  1  0
 18 19  1  0
 18 41  1  0
 19 20  2  0
 19 42  1  0
 20 21  1  0
 20 43  1  0
 21 22  2  0
 21 44  1  0
 22 45  1  0
M  CHG  1   7   1
M  END
$$$$
