LIG(A-305)
     RDKit          3D

 30 31  0  0  0  0  0  0  0  0999 V2000
   11.0893    0.3548   23.6740 C   0  0  0  0  0  0  0  0  0  0  0  0
    6.5832    0.5854   17.3891 N   0  0  0  0  0  0  0  0  0  0  0  0
   11.4863   -1.1643   21.9001 C   0  0  0  0  0  0  0  0  0  0  0  0
   12.3943    0.6128   23.8370 N   0  0  0  0  0  0  0  0  0  0  0  0
    5.5782    0.8185   20.0051 C   0  0  0  0  0  0  0  0  0  0  0  0
   12.8323   -0.9213   22.0650 C   0  0  0  0  0  0  0  0  0  0  0  0
    5.0602    1.0116   21.4071 C   0  0  1  0  0  0  0  0  0  0  0  0
   10.5783   -0.5083   22.7201 C   0  0  0  0  0  0  0  0  0  0  0  0
    4.9442    1.4255   18.9261 C   0  0  0  0  0  0  0  0  0  0  0  0
    8.5732   -0.0044   21.3131 C   0  0  0  0  0  0  0  0  0  0  0  0
    7.4442   -0.5264   20.7991 N   0  0  0  0  0  0  0  0  0  0  0  0
    9.1392    0.9736   20.8400 O   0  0  0  0  0  0  0  0  0  0  0  0
    6.7372    0.0665   19.7331 C   0  0  0  0  0  0  0  0  0  0  0  0
    9.0903   -0.7053   22.5541 C   0  0  2  0  0  0  0  0  0  0  0  0
    7.1942   -0.0175   18.4161 C   0  0  0  0  0  0  0  0  0  0  0  0
   13.2583   -0.0082   23.0260 C   0  0  0  0  0  0  0  0  0  0  0  0
    5.4702    1.2814   17.6561 C   0  0  0  0  0  0  0  0  0  0  0  0
   13.9823   -1.8483   21.1431 Cl  0  0  0  0  0  0  0  0  0  0  0  0
   10.3906    0.8528   24.3299 H   0  0  0  0  0  0  0  0  0  0  0  0
   11.1427   -1.8548   21.1441 H   0  0  0  0  0  0  0  0  0  0  0  0
    4.1741    1.6629   21.3846 H   0  0  0  0  0  0  0  0  0  0  0  0
    4.7870    0.0355   21.8345 H   0  0  0  0  0  0  0  0  0  0  0  0
    5.8416    1.4770   22.0257 H   0  0  0  0  0  0  0  0  0  0  0  0
    4.0464    2.0058   19.0796 H   0  0  0  0  0  0  0  0  0  0  0  0
    7.0901   -1.3751   21.1919 H   0  0  0  0  0  0  0  0  0  0  0  0
    8.5749   -0.2975   23.4362 H   0  0  0  0  0  0  0  0  0  0  0  0
    8.8791   -1.7816   22.4711 H   0  0  0  0  0  0  0  0  0  0  0  0
    8.0835   -0.5969   18.2166 H   0  0  0  0  0  0  0  0  0  0  0  0
   14.3131    0.2041   23.1191 H   0  0  0  0  0  0  0  0  0  0  0  0
    4.9555    1.7561   16.8337 H   0  0  0  0  0  0  0  0  0  0  0  0
  1  4  2  0
  1  8  1  0
  1 19  1  0
  2 15  1  0
  2 17  2  0
  3  6  1  0
  3  8  2  0
  3 20  1  0
  4 16  1  0
  5  7  1  0
  5  9  2  0
  5 13  1  0
  6 16  2  0
  6 18  1  0
  7 21  1  6
  7 22  1  0
  7 23  1  0
  8 14  1  0
  9 17  1  0
  9 24  1  0
 10 11  1  0
 10 12  2  0
 10 14  1  0
 11 13  1  0
 11 25  1  0
 13 15  2  0
 14 26  1  1
 14 27  1  0
 15 28  1  0
 16 29  1  0
 17 30  1  0
M  END
$$$$
