LIG(A-305)
     RDKit          3D

 37 38  0  0  0  0  0  0  0  0999 V2000
    8.2275    0.0943   25.1671 O   0  0  0  0  0  0  0  0  0  0  0  0
    8.5114   -0.9337   24.5561 C   0  0  0  0  0  0  0  0  0  0  0  0
    7.6804   -2.1936   24.6951 C   0  0  1  0  0  0  0  0  0  0  0  0
    8.4953   -3.4217   25.0351 C   0  0  0  0  0  0  0  0  0  0  0  0
    9.4003   -3.9577   24.1301 C   0  0  0  0  0  0  0  0  0  0  0  0
   10.1492   -5.0418   24.3701 N   0  0  0  0  0  0  0  0  0  0  0  0
    9.9992   -5.6348   25.5601 C   0  0  0  0  0  0  0  0  0  0  0  0
    9.1223   -5.1867   26.5271 C   0  0  0  0  0  0  0  0  0  0  0  0
    8.3633   -4.0677   26.2521 C   0  0  0  0  0  0  0  0  0  0  0  0
    9.5264   -1.0017   23.6980 N   0  0  0  0  0  0  0  0  0  0  0  0
   10.1145    0.1882   23.1260 C   0  0  1  0  0  0  0  0  0  0  0  0
    9.4905    0.6542   21.8220 C   0  0  0  0  0  0  0  0  0  0  0  0
    9.9185    1.6512   21.2580 O   0  0  0  0  0  0  0  0  0  0  0  0
    8.4474   -0.0797   21.3601 N   0  0  0  0  0  0  0  0  0  0  0  0
    7.5404    0.2463   20.3161 C   0  0  0  0  0  0  0  0  0  0  0  0
    6.3494    0.9304   20.6341 C   0  0  0  0  0  0  0  0  0  0  0  0
    6.0455    1.3874   22.0371 C   0  0  1  0  0  0  0  0  0  0  0  0
    7.7633   -0.1017   18.9801 C   0  0  0  0  0  0  0  0  0  0  0  0
    6.9053    0.1683   17.9871 N   0  0  0  0  0  0  0  0  0  0  0  0
    5.7774    0.8054   18.3071 C   0  0  0  0  0  0  0  0  0  0  0  0
    5.4634    1.2004   19.5911 C   0  0  0  0  0  0  0  0  0  0  0  0
    6.9400   -2.0357   25.4931 H   0  0  0  0  0  0  0  0  0  0  0  0
    7.1603   -2.3740   23.7428 H   0  0  0  0  0  0  0  0  0  0  0  0
    9.5074   -3.4703   23.1723 H   0  0  0  0  0  0  0  0  0  0  0  0
   10.5953   -6.5094   25.7751 H   0  0  0  0  0  0  0  0  0  0  0  0
    9.0325   -5.6984   27.4739 H   0  0  0  0  0  0  0  0  0  0  0  0
    7.6654   -3.6953   26.9874 H   0  0  0  0  0  0  0  0  0  0  0  0
    9.8909   -1.8974   23.4430 H   0  0  0  0  0  0  0  0  0  0  0  0
   10.0179    1.0021   23.8596 H   0  0  0  0  0  0  0  0  0  0  0  0
   11.1798   -0.0138   22.9406 H   0  0  0  0  0  0  0  0  0  0  0  0
    8.2982   -0.9600   21.8104 H   0  0  0  0  0  0  0  0  0  0  0  0
    6.8274    2.0839   22.3739 H   0  0  0  0  0  0  0  0  0  0  0  0
    5.0701    1.8955   22.0539 H   0  0  0  0  0  0  0  0  0  0  0  0
    6.0168    0.5163   22.7082 H   0  0  0  0  0  0  0  0  0  0  0  0
    8.6798   -0.6177   18.7347 H   0  0  0  0  0  0  0  0  0  0  0  0
    5.0724    1.0235   17.5186 H   0  0  0  0  0  0  0  0  0  0  0  0
    4.5355    1.7167   19.7879 H   0  0  0  0  0  0  0  0  0  0  0  0
  1  2  2  0
  2  3  1  0
  2 10  1  0
  3  4  1  0
  3 22  1  1
  3 23  1  0
  4  5  2  0
  4  9  1  0
  5  6  1  0
  5 24  1  0
  6  7  2  0
  7  8  1  0
  7 25  1  0
  8  9  2  0
  8 26  1  0
  9 27  1  0
 10 11  1  0
 10 28  1  0
 11 12  1  0
 11 29  1  1
 11 30  1  0
 12 13  2  0
 12 14  1  0
 14 15  1  0
 14 31  1  0
 15 16  2  0
 15 18  1  0
 16 17  1  0
 16 21  1  0
 17 32  1  1
 17 33  1  0
 17 34  1  0
 18 19  2  0
 18 35  1  0
 19 20  1  0
 20 21  2  0
 20 36  1  0
 21 37  1  0
M  END
$$$$
