LIG(A-306)
     RDKit          3D

 39 42  0  0  1  0  0  0  0  0999 V2000
   14.0502   -1.5432   21.1976 Cl  0  0  0  0  0  0  0  0  0  0  0  0
   12.9210   -0.7646   22.2735 C   0  0  0  0  0  0  0  0  0  0  0  0
   13.3976    0.1491   23.2042 C   0  0  0  0  0  0  0  0  0  0  0  0
   12.5017    0.8459   23.9965 C   0  0  0  0  0  0  0  0  0  0  0  0
   11.5697   -1.0207   22.1174 C   0  0  0  0  0  0  0  0  0  0  0  0
   10.6707   -0.2960   22.8887 C   0  0  0  0  0  0  0  0  0  0  0  0
   11.1383    0.6217   23.8223 C   0  0  0  0  0  0  0  0  0  0  0  0
   10.0588    1.2004   24.4852 N   0  0  0  0  0  0  0  0  0  0  0  0
    8.8720    0.7422   24.0191 C   0  0  0  0  0  0  0  0  0  0  0  0
    7.7620    1.0894   24.4001 O   0  0  0  0  0  0  0  0  0  0  0  0
    9.1597   -0.2737   22.8912 C   0  0  2  0  0  0  0  0  0  0  0  0
    8.5799   -1.6440   23.3158 C   0  0  1  0  0  0  0  0  0  0  0  0
    8.5576    0.2953   21.5552 C   0  0  0  0  0  0  0  0  0  0  0  0
    8.9301    1.3923   21.1589 O   0  0  0  0  0  0  0  0  0  0  0  0
    7.5915   -0.4310   20.9425 N   0  0  0  0  0  0  0  0  0  0  0  0
    6.8048   -0.0213   19.8483 C   0  0  0  0  0  0  0  0  0  0  0  0
    5.6697    0.8102   20.1069 C   0  0  0  0  0  0  0  0  0  0  0  0
    5.1717    1.0864   21.4085 C   0  0  0  0  0  0  0  0  0  0  0  0
    4.0897    1.8997   21.5892 C   0  0  0  0  0  0  0  0  0  0  0  0
    3.4496    2.4808   20.5022 C   0  0  0  0  0  0  0  0  0  0  0  0
    3.8875    2.2436   19.2294 C   0  0  0  0  0  0  0  0  0  0  0  0
    5.0016    1.3972   18.9949 C   0  0  0  0  0  0  0  0  0  0  0  0
    5.4846    1.0909   17.6975 C   0  0  0  0  0  0  0  0  0  0  0  0
    6.5126    0.2892   17.4547 N   0  0  0  0  0  0  0  0  0  0  0  0
    7.1437   -0.2451   18.5105 C   0  0  0  0  0  0  0  0  0  0  0  0
   14.4597    0.3150   23.3090 H   0  0  0  0  0  0  0  0  0  0  0  0
   12.8535    1.5501   24.7360 H   0  0  0  0  0  0  0  0  0  0  0  0
   11.2237   -1.7642   21.4146 H   0  0  0  0  0  0  0  0  0  0  0  0
   10.1489    1.8743   25.2184 H   0  0  0  0  0  0  0  0  0  0  0  0
    8.7733   -2.3850   22.5262 H   0  0  0  0  0  0  0  0  0  0  0  0
    9.0589   -1.9708   24.2505 H   0  0  0  0  0  0  0  0  0  0  0  0
    7.4952   -1.5502   23.4729 H   0  0  0  0  0  0  0  0  0  0  0  0
    7.4203   -1.3481   21.3026 H   0  0  0  0  0  0  0  0  0  0  0  0
    5.6561    0.6466   22.2678 H   0  0  0  0  0  0  0  0  0  0  0  0
    3.7278    2.0932   22.5882 H   0  0  0  0  0  0  0  0  0  0  0  0
    2.5985    3.1257   20.6641 H   0  0  0  0  0  0  0  0  0  0  0  0
    3.3808    2.7048   18.3946 H   0  0  0  0  0  0  0  0  0  0  0  0
    4.9831    1.5395   16.8526 H   0  0  0  0  0  0  0  0  0  0  0  0
    7.9793   -0.8997   18.3117 H   0  0  0  0  0  0  0  0  0  0  0  0
  1  2  1  0
  2  3  2  0
  2  5  1  0
  3  4  1  0
  3 26  1  0
  4  7  2  0
  4 27  1  0
  5  6  2  0
  5 28  1  0
  6  7  1  0
  6 11  1  0
  7  8  1  0
  8  9  1  0
  8 29  1  0
  9 10  2  0
  9 11  1  0
 11 12  1  0
 11 13  1  6
 12 30  1  6
 12 31  1  0
 12 32  1  0
 13 14  2  0
 13 15  1  0
 15 16  1  0
 15 33  1  0
 16 17  2  0
 16 25  1  0
 17 18  1  0
 17 22  1  0
 18 19  2  0
 18 34  1  0
 19 20  1  0
 19 35  1  0
 20 21  2  0
 20 36  1  0
 21 22  1  0
 21 37  1  0
 22 23  2  0
 23 24  1  0
 23 38  1  0
 24 25  2  0
 25 39  1  0
M  END
$$$$
