LIG(A-306)
     RDKit          3D

 38 40  0  0  1  0  0  0  0  0999 V2000
  -11.0953   -1.2183  -22.9504 C   0  0  2  0  0  0  0  0  0  0  0  0
   -4.7133    1.3849  -19.0840 C   0  0  0  0  0  0  0  0  0  0  0  0
  -12.4169   -1.9279  -22.6670 C   0  0  1  0  0  0  0  0  0  0  0  0
  -13.6025   -1.2656  -23.3642 C   0  0  1  0  0  0  0  0  0  0  0  0
   -6.4182   -0.0294  -19.8813 C   0  0  0  0  0  0  0  0  0  0  0  0
  -13.3614   -1.1670  -24.8568 C   0  0  1  0  0  0  0  0  0  0  0  0
  -12.1118   -0.3530  -25.1194 C   0  0  1  0  0  0  0  0  0  0  0  0
  -10.9004   -0.9982  -24.4523 C   0  0  1  0  0  0  0  0  0  0  0  0
   -8.2990   -0.3615  -21.5161 C   0  0  0  0  0  0  0  0  0  0  0  0
   -6.8969   -0.0958  -18.5755 C   0  0  0  0  0  0  0  0  0  0  0  0
   -5.2307    1.2849  -17.8131 C   0  0  0  0  0  0  0  0  0  0  0  0
   -7.5117   -2.2992  -22.4791 N   0  0  0  0  0  0  0  0  0  0  0  0
   -7.0914   -0.7389  -20.9336 N   0  0  0  0  0  0  0  0  0  0  0  0
   -9.9266   -2.0111  -22.3708 C   0  0  1  0  0  0  0  0  0  0  0  0
   -6.3100    0.5447  -17.5639 N   0  0  0  0  0  0  0  0  0  0  0  0
   -6.6460   -1.9500  -21.5220 C   0  0  0  0  0  0  0  0  0  0  0  0
   -5.2981    0.7372  -20.1406 C   0  0  0  0  0  0  0  0  0  0  0  0
   -8.5917   -1.3334  -22.6472 C   0  0  0  0  0  0  0  0  0  0  0  0
   -3.6102    2.1554  -19.2964 F   0  0  0  0  0  0  0  0  0  0  0  0
   -5.6484   -2.5552  -21.2037 O   0  0  0  0  0  0  0  0  0  0  0  0
   -8.9712    0.5916  -21.2017 O   0  0  0  0  0  0  0  0  0  0  0  0
  -11.1208   -0.2342  -22.4596 H   0  0  0  0  0  0  0  0  0  0  0  0
  -12.3397   -2.9682  -23.0160 H   0  0  0  0  0  0  0  0  0  0  0  0
  -12.5962   -1.9175  -21.5817 H   0  0  0  0  0  0  0  0  0  0  0  0
  -14.5076   -1.8641  -23.1838 H   0  0  0  0  0  0  0  0  0  0  0  0
  -13.7436   -0.2547  -22.9540 H   0  0  0  0  0  0  0  0  0  0  0  0
  -13.2344   -2.1768  -25.2741 H   0  0  0  0  0  0  0  0  0  0  0  0
  -14.2232   -0.6783  -25.3349 H   0  0  0  0  0  0  0  0  0  0  0  0
  -11.9392   -0.2956  -26.2043 H   0  0  0  0  0  0  0  0  0  0  0  0
  -12.2494    0.6610  -24.7159 H   0  0  0  0  0  0  0  0  0  0  0  0
  -10.0282   -0.3447  -24.6010 H   0  0  0  0  0  0  0  0  0  0  0  0
  -10.7145   -1.9721  -24.9286 H   0  0  0  0  0  0  0  0  0  0  0  0
   -7.7769   -0.6887  -18.3744 H   0  0  0  0  0  0  0  0  0  0  0  0
   -4.7534    1.8161  -17.0029 H   0  0  0  0  0  0  0  0  0  0  0  0
   -7.4277   -3.1345  -23.0224 H   0  0  0  0  0  0  0  0  0  0  0  0
  -10.0619   -2.1009  -21.2829 H   0  0  0  0  0  0  0  0  0  0  0  0
   -9.9173   -3.0138  -22.8231 H   0  0  0  0  0  0  0  0  0  0  0  0
   -4.8981    0.8229  -21.1401 H   0  0  0  0  0  0  0  0  0  0  0  0
  1  3  1  0
  1  8  1  0
  1 14  1  0
  1 22  1  1
  2 11  2  0
  2 17  1  0
  2 19  1  0
  3  4  1  0
  3 23  1  6
  3 24  1  0
  4  6  1  0
  4 25  1  6
  4 26  1  0
  5 10  1  0
  5 13  1  0
  5 17  2  0
  6  7  1  0
  6 27  1  6
  6 28  1  0
  7  8  1  0
  7 29  1  6
  7 30  1  0
  8 31  1  1
  8 32  1  0
  9 13  1  0
  9 18  2  0
  9 21  1  0
 10 15  2  0
 10 33  1  0
 11 15  1  0
 11 34  1  0
 12 16  1  0
 12 18  1  0
 12 35  1  0
 13 16  1  0
 14 18  1  0
 14 36  1  1
 14 37  1  0
 16 20  2  0
 17 38  1  0
M  CHG  1  21  -1
M  END
$$$$
