LIG(A-306)
     RDKit          3D

 39 42  0  0  1  0  0  0  0  0999 V2000
   13.8199   -1.5906   21.6337 Cl  0  0  0  0  0  0  0  0  0  0  0  0
   12.4829   -0.8657   22.4719 C   0  0  0  0  0  0  0  0  0  0  0  0
   12.6904    0.1016   23.4482 C   0  0  0  0  0  0  0  0  0  0  0  0
   14.2893    0.5181   23.9725 Cl  0  0  0  0  0  0  0  0  0  0  0  0
   11.1969   -1.2286   22.1194 C   0  0  0  0  0  0  0  0  0  0  0  0
   10.0953   -0.6302   22.7302 C   0  0  0  0  0  0  0  0  0  0  0  0
   10.3177    0.3551   23.7084 C   0  0  0  0  0  0  0  0  0  0  0  0
   11.6157    0.7220   24.0519 C   0  0  0  0  0  0  0  0  0  0  0  0
    8.6794   -1.0713   22.4091 C   0  0  1  0  0  0  0  0  0  0  0  0
    7.8138   -0.9241   23.6742 C   0  0  1  0  0  0  0  0  0  0  0  0
    7.8702    0.5085   24.1742 C   0  0  1  0  0  0  0  0  0  0  0  0
    9.2561    0.9388   24.3693 N   0  0  0  0  0  0  0  0  0  0  0  0
    8.1166   -0.2192   21.2698 C   0  0  0  0  0  0  0  0  0  0  0  0
    8.6301    0.8484   20.9336 O   0  0  0  0  0  0  0  0  0  0  0  0
    7.0019   -0.7278   20.6880 N   0  0  0  0  0  0  0  0  0  0  0  0
    6.2267   -0.1497   19.6660 C   0  0  0  0  0  0  0  0  0  0  0  0
    5.2493    0.8307   20.0200 C   0  0  0  0  0  0  0  0  0  0  0  0
    4.7186    0.9868   21.3231 C   0  0  0  0  0  0  0  0  0  0  0  0
    3.7473    1.9235   21.5413 C   0  0  0  0  0  0  0  0  0  0  0  0
    3.2585    2.7377   20.5922 N   0  0  0  0  0  0  0  0  0  0  0  0
    3.7421    2.6098   19.3589 C   0  0  0  0  0  0  0  0  0  0  0  0
    4.7355    1.6664   18.9927 C   0  0  0  0  0  0  0  0  0  0  0  0
    5.2042    1.4481   17.6779 C   0  0  0  0  0  0  0  0  0  0  0  0
    6.0546    0.4944   17.3378 N   0  0  0  0  0  0  0  0  0  0  0  0
    6.5293   -0.2886   18.3137 C   0  0  0  0  0  0  0  0  0  0  0  0
   11.0434   -1.9837   21.3627 H   0  0  0  0  0  0  0  0  0  0  0  0
   11.7818    1.4920   24.7908 H   0  0  0  0  0  0  0  0  0  0  0  0
    8.6877   -2.1271   22.1006 H   0  0  0  0  0  0  0  0  0  0  0  0
    6.7725   -1.1868   23.4364 H   0  0  0  0  0  0  0  0  0  0  0  0
    8.1928   -1.5987   24.4561 H   0  0  0  0  0  0  0  0  0  0  0  0
    7.3891    1.1669   23.4359 H   0  0  0  0  0  0  0  0  0  0  0  0
    7.3334    0.5773   25.1318 H   0  0  0  0  0  0  0  0  0  0  0  0
    9.4663    1.2558   25.2942 H   0  0  0  0  0  0  0  0  0  0  0  0
    6.6951   -1.6179   21.0249 H   0  0  0  0  0  0  0  0  0  0  0  0
    5.0773    0.3727   22.1358 H   0  0  0  0  0  0  0  0  0  0  0  0
    3.3477    2.0145   22.5406 H   0  0  0  0  0  0  0  0  0  0  0  0
    3.3549    3.2634   18.5913 H   0  0  0  0  0  0  0  0  0  0  0  0
    4.8440    2.1037   16.8989 H   0  0  0  0  0  0  0  0  0  0  0  0
    7.1975   -1.0887   18.0313 H   0  0  0  0  0  0  0  0  0  0  0  0
  1  2  1  0
  2  3  1  0
  2  5  2  0
  3  4  1  0
  3  8  2  0
  5  6  1  0
  5 26  1  0
  6  7  2  0
  6  9  1  0
  7  8  1  0
  7 12  1  0
  8 27  1  0
  9 10  1  0
  9 13  1  0
  9 28  1  6
 10 11  1  0
 10 29  1  6
 10 30  1  0
 11 12  1  0
 11 31  1  6
 11 32  1  0
 12 33  1  0
 13 14  2  0
 13 15  1  0
 15 16  1  0
 15 34  1  0
 16 17  2  0
 16 25  1  0
 17 18  1  0
 17 22  1  0
 18 19  2  0
 18 35  1  0
 19 20  1  0
 19 36  1  0
 20 21  2  0
 21 22  1  0
 21 37  1  0
 22 23  2  0
 23 24  1  0
 23 38  1  0
 24 25  2  0
 25 39  1  0
M  END
$$$$
