LIG(A-305)
     RDKit          3D

 47 50  0  0  1  0  0  0  0  0999 V2000
   13.9599   -1.6574   20.9709 Cl  0  0  0  0  0  0  0  0  0  0  0  0
   12.9860   -0.6834   22.0270 C   0  0  0  0  0  0  0  0  0  0  0  0
   13.6020    0.2066   22.8769 C   0  0  0  0  0  0  0  0  0  0  0  0
   12.8391    0.9017   23.7969 C   0  0  0  0  0  0  0  0  0  0  0  0
   11.4681    0.6967   23.8380 C   0  0  0  0  0  0  0  0  0  0  0  0
   10.7771    1.4107   24.7840 O   0  0  0  0  0  0  0  0  0  0  0  0
    9.5862    0.7558   25.2481 C   0  0  1  0  0  0  0  0  0  0  0  0
    8.6351    0.4747   24.1132 C   0  0  1  0  0  0  0  0  0  0  0  0
   11.6220   -0.8764   22.0420 C   0  0  0  0  0  0  0  0  0  0  0  0
   10.8380   -0.1823   22.9601 C   0  0  0  0  0  0  0  0  0  0  0  0
    9.3320   -0.3493   23.0121 C   0  0  2  0  0  0  0  0  0  0  0  0
    8.8110    0.0456   21.6332 C   0  0  0  0  0  0  0  0  0  0  0  0
    9.2269    1.0276   21.0501 O   0  0  0  0  0  0  0  0  0  0  0  0
    7.8599   -0.7834   21.0072 N   0  0  0  0  0  0  0  0  0  0  0  0
    7.6979   -2.1554   21.2913 C   0  0  0  0  0  0  0  0  0  0  0  0
    8.5680   -2.7804   21.8863 O   0  0  0  0  0  0  0  0  0  0  0  0
    6.4829   -2.8514   20.7504 C   0  0  1  0  0  0  0  0  0  0  0  0
    6.8638   -3.9574   19.7804 C   0  0  1  0  0  0  0  0  0  0  0  0
    7.0699   -0.1824   19.9503 C   0  0  0  0  0  0  0  0  0  0  0  0
    7.4898   -0.2075   18.6242 C   0  0  0  0  0  0  0  0  0  0  0  0
    6.8517    0.4115   17.6213 N   0  0  0  0  0  0  0  0  0  0  0  0
    5.7507    1.0915   17.9183 C   0  0  0  0  0  0  0  0  0  0  0  0
    5.2088    1.2066   19.2263 C   0  0  0  0  0  0  0  0  0  0  0  0
    5.8919    0.5446   20.2843 C   0  0  0  0  0  0  0  0  0  0  0  0
    4.0128    1.9086   19.5124 C   0  0  0  0  0  0  0  0  0  0  0  0
    3.5099    1.9356   20.7804 C   0  0  0  0  0  0  0  0  0  0  0  0
    4.1630    1.2827   21.8144 C   0  0  0  0  0  0  0  0  0  0  0  0
    5.3300    0.6126   21.5853 C   0  0  0  0  0  0  0  0  0  0  0  0
   14.6698    0.3605   22.8257 H   0  0  0  0  0  0  0  0  0  0  0  0
   13.3065    1.5979   24.4774 H   0  0  0  0  0  0  0  0  0  0  0  0
    9.8639   -0.1952   25.7261 H   0  0  0  0  0  0  0  0  0  0  0  0
    9.0851    1.4029   25.9830 H   0  0  0  0  0  0  0  0  0  0  0  0
    7.7724   -0.0902   24.4960 H   0  0  0  0  0  0  0  0  0  0  0  0
    8.2893    1.4280   23.6869 H   0  0  0  0  0  0  0  0  0  0  0  0
   11.1631   -1.5624   21.3455 H   0  0  0  0  0  0  0  0  0  0  0  0
    9.1028   -1.4120   23.1798 H   0  0  0  0  0  0  0  0  0  0  0  0
    5.9181   -3.2881   21.5873 H   0  0  0  0  0  0  0  0  0  0  0  0
    5.8532   -2.1171   20.2266 H   0  0  0  0  0  0  0  0  0  0  0  0
    5.9528   -4.4455   19.4039 H   0  0  0  0  0  0  0  0  0  0  0  0
    7.4250   -3.5283   18.9372 H   0  0  0  0  0  0  0  0  0  0  0  0
    7.4900   -4.6992   20.2979 H   0  0  0  0  0  0  0  0  0  0  0  0
    8.3868   -0.7607   18.3881 H   0  0  0  0  0  0  0  0  0  0  0  0
    5.2330    1.5901   17.1122 H   0  0  0  0  0  0  0  0  0  0  0  0
    3.4941    2.4272   18.7197 H   0  0  0  0  0  0  0  0  0  0  0  0
    2.5937    2.4712   20.9806 H   0  0  0  0  0  0  0  0  0  0  0  0
    3.7447    1.3043   22.8099 H   0  0  0  0  0  0  0  0  0  0  0  0
    5.8337    0.1265   22.4077 H   0  0  0  0  0  0  0  0  0  0  0  0
  1  2  1  0
  2  3  2  0
  2  9  1  0
  3  4  1  0
  3 29  1  0
  4  5  2  0
  4 30  1  0
  5  6  1  0
  5 10  1  0
  6  7  1  0
  7  8  1  0
  7 31  1  1
  7 32  1  0
  8 11  1  0
  8 33  1  1
  8 34  1  0
  9 10  2  0
  9 35  1  0
 10 11  1  0
 11 12  1  0
 11 36  1  1
 12 13  2  0
 12 14  1  0
 14 15  1  0
 14 19  1  0
 15 16  2  0
 15 17  1  0
 17 18  1  0
 17 37  1  1
 17 38  1  0
 18 39  1  6
 18 40  1  0
 18 41  1  0
 19 20  2  0
 19 24  1  0
 20 21  1  0
 20 42  1  0
 21 22  2  0
 22 23  1  0
 22 43  1  0
 23 24  2  0
 23 25  1  0
 24 28  1  0
 25 26  2  0
 25 44  1  0
 26 27  1  0
 26 45  1  0
 27 28  2  0
 27 46  1  0
 28 47  1  0
M  END
$$$$
