LIG(A-307)
     RDKit          3D

 44 47  0  0  1  0  0  0  0  0999 V2000
   14.1474   -1.5161   21.1221 Cl  0  0  0  0  0  0  0  0  0  0  0  0
   12.9925   -0.8024   22.2174 C   0  0  0  0  0  0  0  0  0  0  0  0
   11.6656   -1.1676   22.1206 C   0  0  0  0  0  0  0  0  0  0  0  0
   13.4166    0.1436   23.1254 C   0  0  0  0  0  0  0  0  0  0  0  0
   12.4907    0.7354   23.9686 C   0  0  0  0  0  0  0  0  0  0  0  0
   11.1407    0.3932   23.8819 C   0  0  0  0  0  0  0  0  0  0  0  0
   10.1738    1.0070   24.7321 N   0  0  0  0  0  0  0  0  0  0  0  0
   10.5839    1.8050   25.7501 C   0  0  0  0  0  0  0  0  0  0  0  0
   10.9017    2.9797   25.4976 O   0  0  0  0  0  0  0  0  0  0  0  0
   10.6607    1.2521   26.9676 N   0  0  0  0  0  0  0  0  0  0  0  0
   10.7146   -0.5558   22.9368 C   0  0  0  0  0  0  0  0  0  0  0  0
    9.2477   -0.8759   22.7391 C   0  0  1  0  0  0  0  0  0  0  0  0
    8.4388   -0.5861   24.0062 C   0  0  1  0  0  0  0  0  0  0  0  0
    8.7328    0.8198   24.4933 C   0  0  2  0  0  0  0  0  0  0  0  0
    8.6963   -0.0759   21.5583 C   0  0  0  0  0  0  0  0  0  0  0  0
    9.2111    0.9822   21.1853 O   0  0  0  0  0  0  0  0  0  0  0  0
    7.6053   -0.6230   20.9724 N   0  0  0  0  0  0  0  0  0  0  0  0
    6.8470   -0.0939   19.9106 C   0  0  0  0  0  0  0  0  0  0  0  0
    5.7290    0.7379   20.2239 C   0  0  0  0  0  0  0  0  0  0  0  0
    5.2712    0.9807   21.5450 C   0  0  0  0  0  0  0  0  0  0  0  0
    4.2031    1.8015   21.7802 C   0  0  0  0  0  0  0  0  0  0  0  0
    3.5439    2.4236   20.7284 C   0  0  0  0  0  0  0  0  0  0  0  0
    3.9407    2.2147   19.4393 C   0  0  0  0  0  0  0  0  0  0  0  0
    5.0337    1.3619   19.1491 C   0  0  0  0  0  0  0  0  0  0  0  0
    5.4775    1.0871   17.8319 C   0  0  0  0  0  0  0  0  0  0  0  0
    6.5056    0.3022   17.5387 N   0  0  0  0  0  0  0  0  0  0  0  0
    7.1658   -0.2628   18.5635 C   0  0  0  0  0  0  0  0  0  0  0  0
   11.3636   -1.9261   21.4137 H   0  0  0  0  0  0  0  0  0  0  0  0
   14.4592    0.4204   23.1790 H   0  0  0  0  0  0  0  0  0  0  0  0
   12.8149    1.4646   24.6963 H   0  0  0  0  0  0  0  0  0  0  0  0
   10.9903    1.7921   27.7420 H   0  0  0  0  0  0  0  0  0  0  0  0
   10.3884    0.2993   27.1022 H   0  0  0  0  0  0  0  0  0  0  0  0
    9.1523   -1.9467   22.5059 H   0  0  0  0  0  0  0  0  0  0  0  0
    7.3656   -0.6786   23.7835 H   0  0  0  0  0  0  0  0  0  0  0  0
    8.7145   -1.3087   24.7885 H   0  0  0  0  0  0  0  0  0  0  0  0
    8.3977    1.5409   23.7332 H   0  0  0  0  0  0  0  0  0  0  0  0
    8.1870    0.9965   25.4319 H   0  0  0  0  0  0  0  0  0  0  0  0
    7.3032   -1.5043   21.3357 H   0  0  0  0  0  0  0  0  0  0  0  0
    5.7739    0.5102   22.3770 H   0  0  0  0  0  0  0  0  0  0  0  0
    3.8692    1.9676   22.7938 H   0  0  0  0  0  0  0  0  0  0  0  0
    2.7096    3.0785   20.9321 H   0  0  0  0  0  0  0  0  0  0  0  0
    3.4160    2.7046   18.6325 H   0  0  0  0  0  0  0  0  0  0  0  0
    4.9438    1.5468   17.0133 H   0  0  0  0  0  0  0  0  0  0  0  0
    8.0078   -0.8960   18.3258 H   0  0  0  0  0  0  0  0  0  0  0  0
  1  2  1  0
  2  3  2  0
  2  4  1  0
  3 11  1  0
  3 28  1  0
  4  5  2  0
  4 29  1  0
  5  6  1  0
  5 30  1  0
  6  7  1  0
  6 11  2  0
  7  8  1  0
  7 14  1  0
  8  9  2  0
  8 10  1  0
 10 31  1  0
 10 32  1  0
 11 12  1  0
 12 13  1  0
 12 15  1  0
 12 33  1  6
 13 14  1  0
 13 34  1  6
 13 35  1  0
 14 36  1  6
 14 37  1  0
 15 16  2  0
 15 17  1  0
 17 18  1  0
 17 38  1  0
 18 19  2  0
 18 27  1  0
 19 20  1  0
 19 24  1  0
 20 21  2  0
 20 39  1  0
 21 22  1  0
 21 40  1  0
 22 23  2  0
 22 41  1  0
 23 24  1  0
 23 42  1  0
 24 25  2  0
 25 26  1  0
 25 43  1  0
 26 27  2  0
 27 44  1  0
M  END
$$$$
