LIG(A-305)
     RDKit          3D

 44 46  0  0  1  0  0  0  0  0999 V2000
   12.0496    0.5296   23.5650 O   0  0  0  0  0  0  0  0  0  0  0  0
   11.2227   -0.0302   24.5861 S   0  0  2  0  0  0  0  0  0  0  0  0
   10.9270    0.7329   25.7591 O   0  0  0  0  0  0  0  0  0  0  0  0
   11.9825   -1.5503   25.1170 C   0  0  0  0  0  0  0  0  0  0  0  0
   11.2314   -2.6542   25.6172 C   0  0  0  0  0  0  0  0  0  0  0  0
    9.8674   -2.6360   25.5344 N   0  0  0  0  0  0  0  0  0  0  0  0
    9.2153   -3.7209   25.9205 C   0  0  0  0  0  0  0  0  0  0  0  0
    9.8232   -4.8639   26.4044 C   0  0  0  0  0  0  0  0  0  0  0  0
   11.1822   -4.8932   26.5013 C   0  0  0  0  0  0  0  0  0  0  0  0
   11.9493   -3.7723   26.1061 C   0  0  0  0  0  0  0  0  0  0  0  0
   13.3643   -3.7445   26.0929 C   0  0  0  0  0  0  0  0  0  0  0  0
   14.0354   -2.6776   25.5818 C   0  0  0  0  0  0  0  0  0  0  0  0
   13.3505   -1.5845   25.0828 C   0  0  0  0  0  0  0  0  0  0  0  0
    9.7915   -0.3850   23.8953 N   0  0  0  0  0  0  0  0  0  0  0  0
    8.5887   -0.3148   24.7315 C   0  0  1  0  0  0  0  0  0  0  0  0
    9.6793   -1.0521   22.5843 C   0  0  1  0  0  0  0  0  0  0  0  0
    9.0902   -0.1610   21.5054 C   0  0  0  0  0  0  0  0  0  0  0  0
    9.6713    0.8489   21.1133 O   0  0  0  0  0  0  0  0  0  0  0  0
    7.8871   -0.5728   21.0496 N   0  0  0  0  0  0  0  0  0  0  0  0
    7.1201    0.0083   20.0127 C   0  0  0  0  0  0  0  0  0  0  0  0
    5.8862    0.6155   20.3108 C   0  0  0  0  0  0  0  0  0  0  0  0
    5.3664    0.7156   21.7219 C   0  0  1  0  0  0  0  0  0  0  0  0
    5.1591    1.1425   19.2459 C   0  0  0  0  0  0  0  0  0  0  0  0
    5.6659    1.0574   17.9648 C   0  0  0  0  0  0  0  0  0  0  0  0
    6.8408    0.4902   17.6697 N   0  0  0  0  0  0  0  0  0  0  0  0
    7.5459   -0.0229   18.6836 C   0  0  0  0  0  0  0  0  0  0  0  0
    8.1374   -3.7125   25.8530 H   0  0  0  0  0  0  0  0  0  0  0  0
    9.2322   -5.7180   26.7004 H   0  0  0  0  0  0  0  0  0  0  0  0
   11.6755   -5.7756   26.8812 H   0  0  0  0  0  0  0  0  0  0  0  0
   13.9180   -4.5808   26.4937 H   0  0  0  0  0  0  0  0  0  0  0  0
   15.1153   -2.6841   25.5653 H   0  0  0  0  0  0  0  0  0  0  0  0
   13.8981   -0.7532   24.6639 H   0  0  0  0  0  0  0  0  0  0  0  0
    7.7069   -0.5793   24.1293 H   0  0  0  0  0  0  0  0  0  0  0  0
    8.6841   -1.0194   25.5708 H   0  0  0  0  0  0  0  0  0  0  0  0
    8.4728    0.7070   25.1218 H   0  0  0  0  0  0  0  0  0  0  0  0
   10.6838   -1.3680   22.2662 H   0  0  0  0  0  0  0  0  0  0  0  0
    9.0350   -1.9365   22.6968 H   0  0  0  0  0  0  0  0  0  0  0  0
    7.4951   -1.3780   21.4946 H   0  0  0  0  0  0  0  0  0  0  0  0
    6.0768    1.2895   22.3350 H   0  0  0  0  0  0  0  0  0  0  0  0
    4.3912    1.2244   21.7180 H   0  0  0  0  0  0  0  0  0  0  0  0
    5.2515   -0.2942   22.1427 H   0  0  0  0  0  0  0  0  0  0  0  0
    4.2041    1.6152   19.4217 H   0  0  0  0  0  0  0  0  0  0  0  0
    5.0818    1.4716   17.1564 H   0  0  0  0  0  0  0  0  0  0  0  0
    8.4960   -0.4863   18.4623 H   0  0  0  0  0  0  0  0  0  0  0  0
  1  2  2  0
  2  3  2  0
  2  4  1  0
  2 14  1  6
  4  5  2  0
  4 13  1  0
  5  6  1  0
  5 10  1  0
  6  7  2  0
  7  8  1  0
  7 27  1  0
  8  9  2  0
  8 28  1  0
  9 10  1  0
  9 29  1  0
 10 11  2  0
 11 12  1  0
 11 30  1  0
 12 13  2  0
 12 31  1  0
 13 32  1  0
 14 15  1  0
 14 16  1  0
 15 33  1  6
 15 34  1  0
 15 35  1  0
 16 17  1  0
 16 36  1  6
 16 37  1  0
 17 18  2  0
 17 19  1  0
 19 20  1  0
 19 38  1  0
 20 21  2  0
 20 26  1  0
 21 22  1  0
 21 23  1  0
 22 39  1  1
 22 40  1  0
 22 41  1  0
 23 24  2  0
 23 42  1  0
 24 25  1  0
 24 43  1  0
 25 26  2  0
 26 44  1  0
M  END
$$$$
