LIG(B-307)
     RDKit          3D

 42 44  0  0  0  0  0  0  0  0999 V2000
   46.6954   -1.7813  -20.6581 C   0  0  0  0  0  0  0  0  0  0  0  0
   43.5448   -0.9007  -22.1605 C   0  0  1  0  0  0  0  0  0  0  0  0
   45.0163   -0.5219  -22.0503 C   0  0  1  0  0  0  0  0  0  0  0  0
   43.3829   -2.0027  -23.1277 N   0  0  0  0  0  0  0  0  0  0  0  0
   44.1478   -3.1853  -22.7207 C   0  0  1  0  0  0  0  0  0  0  0  0
   46.8916   -0.5866  -19.7508 C   0  0  0  0  0  0  0  0  0  0  0  0
   42.0919   -2.2021  -23.6681 C   0  0  0  0  0  0  0  0  0  0  0  0
   41.8542   -3.0625  -24.7540 C   0  0  0  0  0  0  0  0  0  0  0  0
   40.5701   -3.2327  -25.2656 C   0  0  0  0  0  0  0  0  0  0  0  0
   39.4606   -2.5692  -24.7379 C   0  0  0  0  0  0  0  0  0  0  0  0
   39.7193   -1.7137  -23.6551 C   0  0  0  0  0  0  0  0  0  0  0  0
   40.9843   -1.5205  -23.1225 C   0  0  0  0  0  0  0  0  0  0  0  0
   48.2087    1.4435  -19.5119 C   0  0  0  0  0  0  0  0  0  0  0  0
   46.4874    0.8453  -17.8322 C   0  0  0  0  0  0  0  0  0  0  0  0
   46.1997   -0.3438  -18.6122 C   0  0  0  0  0  0  0  0  0  0  0  0
   38.0714   -2.7603  -25.2990 C   0  0  1  0  0  0  0  0  0  0  0  0
   45.6286   -2.8391  -22.5772 C   0  0  1  0  0  0  0  0  0  0  0  0
   47.8623    0.2870  -20.1799 N   0  0  0  0  0  0  0  0  0  0  0  0
   47.4910    1.6634  -18.3549 N   0  0  0  0  0  0  0  0  0  0  0  0
   45.8120   -1.6985  -21.6695 N   0  0  0  0  0  0  0  0  0  0  0  0
   49.0811    2.2048  -19.9157 O   0  0  0  0  0  0  0  0  0  0  0  0
   45.9198    1.1581  -16.7846 O   0  0  0  0  0  0  0  0  0  0  0  0
   38.1057   -3.7547  -26.3199 O   0  0  0  0  0  0  0  0  0  0  0  0
   47.3708   -2.7967  -20.4132 O   0  0  0  0  0  0  0  0  0  0  0  0
   38.3794   -0.8206  -22.9094 Cl  0  0  0  0  0  0  0  0  0  0  0  0
   43.1759   -1.2224  -21.1754 H   0  0  0  0  0  0  0  0  0  0  0  0
   42.9677   -0.0283  -22.5011 H   0  0  0  0  0  0  0  0  0  0  0  0
   45.3684   -0.1428  -23.0211 H   0  0  0  0  0  0  0  0  0  0  0  0
   45.1347    0.2606  -21.2863 H   0  0  0  0  0  0  0  0  0  0  0  0
   43.7657   -3.5494  -21.7556 H   0  0  0  0  0  0  0  0  0  0  0  0
   44.0315   -3.9714  -23.4812 H   0  0  0  0  0  0  0  0  0  0  0  0
   42.6795   -3.5995  -25.1980 H   0  0  0  0  0  0  0  0  0  0  0  0
   40.4273   -3.9022  -26.1010 H   0  0  0  0  0  0  0  0  0  0  0  0
   41.1220   -0.8474  -22.2891 H   0  0  0  0  0  0  0  0  0  0  0  0
   45.4356   -1.0337  -18.2855 H   0  0  0  0  0  0  0  0  0  0  0  0
   37.3923   -3.0823  -24.4958 H   0  0  0  0  0  0  0  0  0  0  0  0
   37.7132   -1.8108  -25.7235 H   0  0  0  0  0  0  0  0  0  0  0  0
   46.1653   -3.7106  -22.1744 H   0  0  0  0  0  0  0  0  0  0  0  0
   46.0364   -2.5823  -23.5661 H   0  0  0  0  0  0  0  0  0  0  0  0
   48.3386    0.0713  -21.0240 H   0  0  0  0  0  0  0  0  0  0  0  0
   47.7333    2.4927  -17.8469 H   0  0  0  0  0  0  0  0  0  0  0  0
   37.4586   -4.4244  -26.1321 H   0  0  0  0  0  0  0  0  0  0  0  0
  1  6  1  0
  1 20  1  0
  1 24  2  0
  2  3  1  0
  2  4  1  0
  2 26  1  1
  2 27  1  0
  3 20  1  0
  3 28  1  6
  3 29  1  0
  4  5  1  0
  4  7  1  0
  5 17  1  0
  5 30  1  1
  5 31  1  0
  6 15  2  0
  6 18  1  0
  7  8  2  0
  7 12  1  0
  8  9  1  0
  8 32  1  0
  9 10  2  0
  9 33  1  0
 10 11  1  0
 10 16  1  0
 11 12  2  0
 11 25  1  0
 12 34  1  0
 13 18  1  0
 13 19  1  0
 13 21  2  0
 14 15  1  0
 14 19  1  0
 14 22  2  0
 15 35  1  0
 16 23  1  0
 16 36  1  1
 16 37  1  0
 17 20  1  0
 17 38  1  1
 17 39  1  0
 18 40  1  0
 19 41  1  0
 23 42  1  0
M  END
$$$$
