LIG(A-305)
     RDKit          3D

 31 33  0  0  0  0  0  0  0  0999 V2000
    9.1064    0.8994   21.2072 O   0  0  0  0  0  0  0  0  0  0  0  0
    8.6374   -0.1885   21.5343 C   0  0  0  0  0  0  0  0  0  0  0  0
    9.1045   -0.9365   22.7673 C   0  0  1  0  0  0  0  0  0  0  0  0
   10.5765   -0.6875   22.9861 C   0  0  0  0  0  0  0  0  0  0  0  0
   11.0106    0.2845   23.8771 C   0  0  0  0  0  0  0  0  0  0  0  0
   12.3526    0.6295   23.9520 C   0  0  0  0  0  0  0  0  0  0  0  0
   13.2825   -0.0016   23.1419 C   0  0  0  0  0  0  0  0  0  0  0  0
   11.5144   -1.3446   22.1981 C   0  0  0  0  0  0  0  0  0  0  0  0
   12.8444   -0.9926   22.2850 C   0  0  0  0  0  0  0  0  0  0  0  0
   13.9993   -1.8366   21.2949 Cl  0  0  0  0  0  0  0  0  0  0  0  0
    7.7093   -0.8416   20.7874 N   0  0  0  0  0  0  0  0  0  0  0  0
    7.1072   -0.3116   19.6784 C   0  0  0  0  0  0  0  0  0  0  0  0
    5.9552    0.4314   19.8145 N   0  0  0  0  0  0  0  0  0  0  0  0
    5.6621    0.8404   18.5175 C   0  0  0  0  0  0  0  0  0  0  0  0
    6.5731    0.3774   17.6714 N   0  0  0  0  0  0  0  0  0  0  0  0
    7.4971   -0.3596   18.4164 N   0  0  0  0  0  0  0  0  0  0  0  0
    5.1713    0.7895   20.8985 C   0  0  0  0  0  0  0  0  0  0  0  0
    4.0803    1.5605   20.7016 C   0  0  0  0  0  0  0  0  0  0  0  0
    3.7452    1.9955   19.3976 C   0  0  0  0  0  0  0  0  0  0  0  0
    4.5191    1.6484   18.3206 C   0  0  0  0  0  0  0  0  0  0  0  0
    8.5399   -0.5853   23.6436 H   0  0  0  0  0  0  0  0  0  0  0  0
    8.9326   -2.0141   22.6282 H   0  0  0  0  0  0  0  0  0  0  0  0
   10.2958    0.7777   24.5191 H   0  0  0  0  0  0  0  0  0  0  0  0
   12.6734    1.3933   24.6448 H   0  0  0  0  0  0  0  0  0  0  0  0
   14.3258    0.2748   23.1795 H   0  0  0  0  0  0  0  0  0  0  0  0
   11.2029   -2.1265   21.5214 H   0  0  0  0  0  0  0  0  0  0  0  0
    7.4500   -1.7666   21.0650 H   0  0  0  0  0  0  0  0  0  0  0  0
    5.4302    0.4551   21.8923 H   0  0  0  0  0  0  0  0  0  0  0  0
    3.4628    1.8454   21.5406 H   0  0  0  0  0  0  0  0  0  0  0  0
    2.8687    2.6087   19.2489 H   0  0  0  0  0  0  0  0  0  0  0  0
    4.2577    1.9896   17.3298 H   0  0  0  0  0  0  0  0  0  0  0  0
  1  2  2  0
  2  3  1  0
  2 11  1  0
  3  4  1  0
  3 21  1  1
  3 22  1  0
  4  5  2  0
  4  8  1  0
  5  6  1  0
  5 23  1  0
  6  7  2  0
  6 24  1  0
  7  9  1  0
  7 25  1  0
  8  9  2  0
  8 26  1  0
  9 10  1  0
 11 12  1  0
 11 27  1  0
 12 13  1  0
 12 16  2  0
 13 14  1  0
 13 17  1  0
 14 15  2  0
 14 20  1  0
 15 16  1  0
 17 18  2  0
 17 28  1  0
 18 19  1  0
 18 29  1  0
 19 20  2  0
 19 30  1  0
 20 31  1  0
M  END
$$$$
