LIG(A-306)
     RDKit          3D

 54 57  0  0  1  0  0  0  0  0999 V2000
   14.0248   -1.6201   21.4298 Cl  0  0  0  0  0  0  0  0  0  0  0  0
   12.8527   -0.7933   22.4218 C   0  0  0  0  0  0  0  0  0  0  0  0
   11.5187   -1.1474   22.3298 C   0  0  0  0  0  0  0  0  0  0  0  0
   13.2786    0.1968   23.2718 C   0  0  0  0  0  0  0  0  0  0  0  0
   12.3525    0.8287   24.0788 C   0  0  0  0  0  0  0  0  0  0  0  0
   10.9995    0.5055   24.0178 C   0  0  0  0  0  0  0  0  0  0  0  0
   10.0704    1.2323   24.9648 C   0  0  1  0  0  0  0  0  0  0  0  0
    8.6504    0.9701   24.6998 N   0  0  0  0  0  0  0  0  0  0  0  0
    7.4463    1.9340   25.1298 S   0  0  1  0  0  0  0  0  0  0  0  0
    6.2414    1.3868   24.6088 O   0  0  0  0  0  0  0  0  0  0  0  0
    7.5913    2.1630   26.5248 O   0  0  0  0  0  0  0  0  0  0  0  0
    7.7691    3.3020   24.3618 N   0  0  0  0  0  0  0  0  0  0  0  0
    8.2870    4.4271   25.1468 C   0  0  1  0  0  0  0  0  0  0  0  0
    7.5501    3.5790   22.9298 C   0  0  1  0  0  0  0  0  0  0  0  0
    6.3210    4.4198   22.6878 C   0  0  1  0  0  0  0  0  0  0  0  0
   10.5727   -0.4796   23.1118 C   0  0  0  0  0  0  0  0  0  0  0  0
    9.0947   -0.7758   22.9498 C   0  0  1  0  0  0  0  0  0  0  0  0
    8.3256   -0.3819   24.2098 C   0  0  1  0  0  0  0  0  0  0  0  0
    8.5686   -0.0349   21.7168 C   0  0  0  0  0  0  0  0  0  0  0  0
    9.1314    0.9632   21.2588 O   0  0  0  0  0  0  0  0  0  0  0  0
    7.4177   -0.5410   21.1998 N   0  0  0  0  0  0  0  0  0  0  0  0
    6.6786   -0.0381   20.1038 C   0  0  0  0  0  0  0  0  0  0  0  0
    5.5425    0.7967   20.3628 C   0  0  0  0  0  0  0  0  0  0  0  0
    4.9964    1.0096   21.6558 C   0  0  0  0  0  0  0  0  0  0  0  0
    3.8863    1.7865   21.8318 C   0  0  0  0  0  0  0  0  0  0  0  0
    3.2722    2.3994   20.7468 C   0  0  0  0  0  0  0  0  0  0  0  0
    3.7633    2.2305   19.4828 C   0  0  0  0  0  0  0  0  0  0  0  0
    4.9014    1.4186   19.2528 C   0  0  0  0  0  0  0  0  0  0  0  0
    5.4134    1.1507   17.9588 C   0  0  0  0  0  0  0  0  0  0  0  0
    6.4485    0.3568   17.7178 N   0  0  0  0  0  0  0  0  0  0  0  0
    7.0556   -0.2111   18.7708 C   0  0  0  0  0  0  0  0  0  0  0  0
   11.2105   -1.9349   21.6580 H   0  0  0  0  0  0  0  0  0  0  0  0
   14.3208    0.4773   23.3090 H   0  0  0  0  0  0  0  0  0  0  0  0
   12.6845    1.5885   24.7708 H   0  0  0  0  0  0  0  0  0  0  0  0
   10.2988    0.9125   25.9922 H   0  0  0  0  0  0  0  0  0  0  0  0
   10.2498    2.3134   24.8689 H   0  0  0  0  0  0  0  0  0  0  0  0
    8.4584    5.2886   24.4848 H   0  0  0  0  0  0  0  0  0  0  0  0
    7.5560    4.7004   25.9220 H   0  0  0  0  0  0  0  0  0  0  0  0
    9.2350    4.1362   25.6229 H   0  0  0  0  0  0  0  0  0  0  0  0
    8.4269    4.1133   22.5353 H   0  0  0  0  0  0  0  0  0  0  0  0
    7.4340    2.6227   22.3988 H   0  0  0  0  0  0  0  0  0  0  0  0
    6.2037    4.5967   21.6085 H   0  0  0  0  0  0  0  0  0  0  0  0
    5.4349    3.8926   23.0712 H   0  0  0  0  0  0  0  0  0  0  0  0
    6.4278    5.3833   23.2076 H   0  0  0  0  0  0  0  0  0  0  0  0
    8.9682   -1.8563   22.7871 H   0  0  0  0  0  0  0  0  0  0  0  0
    8.5632   -1.1060   25.0031 H   0  0  0  0  0  0  0  0  0  0  0  0
    7.2491   -0.4220   23.9872 H   0  0  0  0  0  0  0  0  0  0  0  0
    7.0532   -1.3597   21.6436 H   0  0  0  0  0  0  0  0  0  0  0  0
    5.4657    0.5506   22.5134 H   0  0  0  0  0  0  0  0  0  0  0  0
    3.4824    1.9253   22.8238 H   0  0  0  0  0  0  0  0  0  0  0  0
    2.3989    3.0150   20.9037 H   0  0  0  0  0  0  0  0  0  0  0  0
    3.2791    2.7206   18.6511 H   0  0  0  0  0  0  0  0  0  0  0  0
    4.9306    1.6225   17.1158 H   0  0  0  0  0  0  0  0  0  0  0  0
    7.9018   -0.8520   18.5718 H   0  0  0  0  0  0  0  0  0  0  0  0
  1  2  1  0
  2  3  2  0
  2  4  1  0
  3 16  1  0
  3 32  1  0
  4  5  2  0
  4 33  1  0
  5  6  1  0
  5 34  1  0
  6  7  1  0
  6 16  2  0
  7  8  1  0
  7 35  1  1
  7 36  1  0
  8  9  1  0
  8 18  1  0
  9 10  2  0
  9 11  2  0
  9 12  1  6
 12 13  1  0
 12 14  1  0
 13 37  1  6
 13 38  1  0
 13 39  1  0
 14 15  1  0
 14 40  1  6
 14 41  1  0
 15 42  1  6
 15 43  1  0
 15 44  1  0
 16 17  1  0
 17 18  1  0
 17 19  1  0
 17 45  1  6
 18 46  1  1
 18 47  1  0
 19 20  2  0
 19 21  1  0
 21 22  1  0
 21 48  1  0
 22 23  2  0
 22 31  1  0
 23 24  1  0
 23 28  1  0
 24 25  2  0
 24 49  1  0
 25 26  1  0
 25 50  1  0
 26 27  2  0
 26 51  1  0
 27 28  1  0
 27 52  1  0
 28 29  2  0
 29 30  1  0
 29 53  1  0
 30 31  2  0
 31 54  1  0
M  END
$$$$
