LIG(A-306)
     RDKit          3D

 43 46  0  0  1  0  0  0  0  0999 V2000
   -4.2780    2.0137  -23.1080 F   0  0  0  0  0  0  0  0  0  0  0  0
   -4.6951    1.7184  -21.8515 C   0  0  0  0  0  0  0  0  0  0  0  0
   -3.9475    2.1859  -20.7969 C   0  0  0  0  0  0  0  0  0  0  0  0
   -4.3267    1.8714  -19.5275 C   0  0  0  0  0  0  0  0  0  0  0  0
   -5.8098    0.9556  -21.7037 C   0  0  0  0  0  0  0  0  0  0  0  0
   -6.2309    0.6021  -20.3964 C   0  0  0  0  0  0  0  0  0  0  0  0
   -5.4743    1.0784  -19.2877 C   0  0  0  0  0  0  0  0  0  0  0  0
   -5.9214    0.7420  -17.9873 C   0  0  0  0  0  0  0  0  0  0  0  0
   -7.0039    0.0207  -17.7344 N   0  0  0  0  0  0  0  0  0  0  0  0
   -7.7053   -0.4299  -18.7830 C   0  0  0  0  0  0  0  0  0  0  0  0
   -7.3905   -0.1920  -20.1236 C   0  0  0  0  0  0  0  0  0  0  0  0
   -8.1890   -0.6363  -21.2031 N   0  0  0  0  0  0  0  0  0  0  0  0
   -9.3782   -0.1121  -21.5858 C   0  0  0  0  0  0  0  0  0  0  0  0
   -9.8992    0.8493  -21.0348 O   0  0  0  0  0  0  0  0  0  0  0  0
  -10.0664   -0.7511  -22.8341 C   0  0  1  0  0  0  0  0  0  0  0  0
   -9.5239   -2.0628  -23.0014 O   0  0  0  0  0  0  0  0  0  0  0  0
  -10.1616   -3.1417  -22.3063 C   0  0  1  0  0  0  0  0  0  0  0  0
  -11.5813   -0.6954  -22.8110 C   0  0  0  0  0  0  0  0  0  0  0  0
  -12.3113   -1.2722  -21.7740 C   0  0  0  0  0  0  0  0  0  0  0  0
  -13.6829   -1.1040  -21.7336 C   0  0  0  0  0  0  0  0  0  0  0  0
  -14.6035   -1.9888  -20.5515 Cl  0  0  0  0  0  0  0  0  0  0  0  0
  -14.3482   -0.3212  -22.6531 C   0  0  0  0  0  0  0  0  0  0  0  0
  -13.6361    0.2657  -23.6840 C   0  0  0  0  0  0  0  0  0  0  0  0
  -12.2687    0.0546  -23.7695 C   0  0  0  0  0  0  0  0  0  0  0  0
  -11.6508    0.5809  -24.8765 O   0  0  0  0  0  0  0  0  0  0  0  0
  -10.3044    1.0248  -24.6317 C   0  0  1  0  0  0  0  0  0  0  0  0
   -9.4274   -0.0664  -24.0536 C   0  0  2  0  0  0  0  0  0  0  0  0
   -3.0723    2.7937  -20.9726 H   0  0  0  0  0  0  0  0  0  0  0  0
   -3.7441    2.2318  -18.6926 H   0  0  0  0  0  0  0  0  0  0  0  0
   -6.3661    0.6238  -22.5679 H   0  0  0  0  0  0  0  0  0  0  0  0
   -5.3429    1.0961  -17.1469 H   0  0  0  0  0  0  0  0  0  0  0  0
   -8.5833   -1.0238  -18.5761 H   0  0  0  0  0  0  0  0  0  0  0  0
   -7.8433   -1.4101  -21.7339 H   0  0  0  0  0  0  0  0  0  0  0  0
   -9.6379   -4.0829  -22.5295 H   0  0  0  0  0  0  0  0  0  0  0  0
  -10.1274   -2.9511  -21.2235 H   0  0  0  0  0  0  0  0  0  0  0  0
  -11.2094   -3.2191  -22.6321 H   0  0  0  0  0  0  0  0  0  0  0  0
  -11.8101   -1.8458  -21.0083 H   0  0  0  0  0  0  0  0  0  0  0  0
  -15.4139   -0.1676  -22.5694 H   0  0  0  0  0  0  0  0  0  0  0  0
  -14.1400    0.8815  -24.4142 H   0  0  0  0  0  0  0  0  0  0  0  0
   -9.8663    1.3621  -25.5826 H   0  0  0  0  0  0  0  0  0  0  0  0
  -10.3340    1.8655  -23.9229 H   0  0  0  0  0  0  0  0  0  0  0  0
   -9.2490   -0.8244  -24.8305 H   0  0  0  0  0  0  0  0  0  0  0  0
   -8.4686    0.3770  -23.7470 H   0  0  0  0  0  0  0  0  0  0  0  0
  1  2  1  0
  2  3  2  0
  2  5  1  0
  3  4  1  0
  3 28  1  0
  4  7  2  0
  4 29  1  0
  5  6  2  0
  5 30  1  0
  6  7  1  0
  6 11  1  0
  7  8  1  0
  8  9  2  0
  8 31  1  0
  9 10  1  0
 10 11  2  0
 10 32  1  0
 11 12  1  0
 12 13  1  0
 12 33  1  0
 13 14  2  0
 13 15  1  0
 15 16  1  6
 15 18  1  0
 15 27  1  0
 16 17  1  0
 17 34  1  1
 17 35  1  0
 17 36  1  0
 18 19  2  0
 18 24  1  0
 19 20  1  0
 19 37  1  0
 20 21  1  0
 20 22  2  0
 22 23  1  0
 22 38  1  0
 23 24  2  0
 23 39  1  0
 24 25  1  0
 25 26  1  0
 26 27  1  0
 26 40  1  6
 26 41  1  0
 27 42  1  6
 27 43  1  0
M  END
$$$$
