LIG(A-305)
     RDKit          3D

 37 38  0  0  0  0  0  0  0  0999 V2000
    7.1327   -1.4259   21.5483 N   0  0  0  0  0  0  0  0  0  0  0  0
   11.1929    0.3857   23.1050 C   0  0  0  0  0  0  0  0  0  0  0  0
    4.6578    0.6023   20.4134 C   0  0  0  0  0  0  0  0  0  0  0  0
    9.4378   -1.1341   22.7572 O   0  0  0  0  0  0  0  0  0  0  0  0
    7.4486   -2.3959   22.5883 C   0  0  1  0  0  0  0  0  0  0  0  0
    6.5537    1.2330   16.8833 O   0  0  0  0  0  0  0  0  0  0  0  0
   12.5400    0.7236   23.0750 C   0  0  0  0  0  0  0  0  0  0  0  0
   10.7938   -0.9363   22.8231 C   0  0  0  0  0  0  0  0  0  0  0  0
   11.7487   -1.9024   22.5451 C   0  0  0  0  0  0  0  0  0  0  0  0
   13.0887   -1.5475   22.5110 C   0  0  0  0  0  0  0  0  0  0  0  0
    5.6677   -0.3228   19.9854 C   0  0  0  0  0  0  0  0  0  0  0  0
    5.9837    0.9571   17.9463 C   0  0  0  0  0  0  0  0  0  0  0  0
    6.0206   -1.5128   20.8184 C   0  0  0  0  0  0  0  0  0  0  0  0
    4.3599    1.6303   19.5964 C   0  0  0  0  0  0  0  0  0  0  0  0
    6.2997   -0.1409   18.7833 C   0  0  0  0  0  0  0  0  0  0  0  0
   10.4982    2.6288   23.5860 C   0  0  1  0  0  0  0  0  0  0  0  0
    5.0008    1.7982   18.4103 N   0  0  0  0  0  0  0  0  0  0  0  0
   10.1700    1.2548   23.3761 O   0  0  0  0  0  0  0  0  0  0  0  0
    5.2835   -2.4968   20.8575 O   0  0  0  0  0  0  0  0  0  0  0  0
    8.9236   -2.4721   22.8473 C   0  0  2  0  0  0  0  0  0  0  0  0
   13.4789   -0.2465   22.7680 C   0  0  0  0  0  0  0  0  0  0  0  0
    7.7683   -0.6732   21.3771 H   0  0  0  0  0  0  0  0  0  0  0  0
    4.1531    0.4781   21.3601 H   0  0  0  0  0  0  0  0  0  0  0  0
    6.9385   -2.1012   23.5173 H   0  0  0  0  0  0  0  0  0  0  0  0
    7.0908   -3.3868   22.2720 H   0  0  0  0  0  0  0  0  0  0  0  0
   12.8524    1.7349   23.2893 H   0  0  0  0  0  0  0  0  0  0  0  0
   11.4511   -2.9233   22.3566 H   0  0  0  0  0  0  0  0  0  0  0  0
   13.8343   -2.2944   22.2816 H   0  0  0  0  0  0  0  0  0  0  0  0
    3.5962    2.3354   19.8898 H   0  0  0  0  0  0  0  0  0  0  0  0
    7.0528   -0.8480   18.4682 H   0  0  0  0  0  0  0  0  0  0  0  0
    9.5799    3.1984   23.7914 H   0  0  0  0  0  0  0  0  0  0  0  0
   11.1826    2.7154   24.4428 H   0  0  0  0  0  0  0  0  0  0  0  0
   10.9853    3.0310   22.6855 H   0  0  0  0  0  0  0  0  0  0  0  0
    4.7399    2.5774   17.8323 H   0  0  0  0  0  0  0  0  0  0  0  0
    9.1098   -2.8810   23.8513 H   0  0  0  0  0  0  0  0  0  0  0  0
    9.4062   -3.1131   22.0949 H   0  0  0  0  0  0  0  0  0  0  0  0
   14.5258    0.0157   22.7289 H   0  0  0  0  0  0  0  0  0  0  0  0
  1  5  1  0
  1 13  1  0
  1 22  1  0
  2  7  2  0
  2  8  1  0
  2 18  1  0
  3 11  1  0
  3 14  2  0
  3 23  1  0
  4  8  1  0
  4 20  1  0
  5 20  1  0
  5 24  1  1
  5 25  1  0
  6 12  2  0
  7 21  1  0
  7 26  1  0
  8  9  2  0
  9 10  1  0
  9 27  1  0
 10 21  2  0
 10 28  1  0
 11 13  1  0
 11 15  2  0
 12 15  1  0
 12 17  1  0
 13 19  2  0
 14 17  1  0
 14 29  1  0
 15 30  1  0
 16 18  1  0
 16 31  1  1
 16 32  1  0
 16 33  1  0
 17 34  1  0
 20 35  1  1
 20 36  1  0
 21 37  1  0
M  END
$$$$
