LIG(A-305)
     RDKit          3D

 37 39  0  0  1  0  0  0  0  0999 V2000
    7.2081   -2.9354   21.4111 N   0  0  0  0  0  0  0  0  0  0  0  0
    6.8431   -3.2904   20.1602 C   0  0  0  0  0  0  0  0  0  0  0  0
    8.8152   -3.2924   23.7271 C   0  0  0  0  0  0  0  0  0  0  0  0
   12.4392   -0.8796   22.2540 C   0  0  0  0  0  0  0  0  0  0  0  0
    8.1482   -1.8584   21.7551 C   0  0  1  0  0  0  0  0  0  0  0  0
   11.7143    0.3595   24.1780 C   0  0  0  0  0  0  0  0  0  0  0  0
    7.6991   -4.1014   23.5142 C   0  0  0  0  0  0  0  0  0  0  0  0
   10.4973   -0.3025   24.1430 C   0  0  0  0  0  0  0  0  0  0  0  0
   10.2252   -1.2405   23.1531 C   0  0  0  0  0  0  0  0  0  0  0  0
    9.7131   -4.9454   25.2432 C   0  0  0  0  0  0  0  0  0  0  0  0
   11.2052   -1.5275   22.2071 C   0  0  0  0  0  0  0  0  0  0  0  0
    6.6221   -3.5933   22.5902 C   0  0  1  0  0  0  0  0  0  0  0  0
   13.5062   -1.3017   21.3830 C   0  0  0  0  0  0  0  0  0  0  0  0
    9.8232   -3.7314   24.5861 C   0  0  0  0  0  0  0  0  0  0  0  0
    8.6081   -5.7384   25.0402 C   0  0  0  0  0  0  0  0  0  0  0  0
    7.3791   -2.4545   19.0141 C   0  0  1  0  0  0  0  0  0  0  0  0
   14.3762   -1.6247   20.7170 N   0  0  0  0  0  0  0  0  0  0  0  0
    6.0871   -4.2234   19.9462 O   0  0  0  0  0  0  0  0  0  0  0  0
   12.6813    0.0844   23.2290 C   0  0  0  0  0  0  0  0  0  0  0  0
    8.8562   -1.9094   23.1191 C   0  0  2  0  0  0  0  0  0  0  0  0
    7.6061   -5.3253   24.1732 C   0  0  0  0  0  0  0  0  0  0  0  0
    8.9315   -1.8524   20.9828 H   0  0  0  0  0  0  0  0  0  0  0  0
    7.5872   -0.9131   21.7158 H   0  0  0  0  0  0  0  0  0  0  0  0
   11.9078    1.0916   24.9481 H   0  0  0  0  0  0  0  0  0  0  0  0
    9.7512   -0.0873   24.8936 H   0  0  0  0  0  0  0  0  0  0  0  0
   10.4946   -5.2692   25.9146 H   0  0  0  0  0  0  0  0  0  0  0  0
   11.0091   -2.2552   21.4334 H   0  0  0  0  0  0  0  0  0  0  0  0
    5.9950   -2.8698   23.1317 H   0  0  0  0  0  0  0  0  0  0  0  0
    6.0028   -4.4400   22.2593 H   0  0  0  0  0  0  0  0  0  0  0  0
   10.6985   -3.1180   24.7403 H   0  0  0  0  0  0  0  0  0  0  0  0
    8.5198   -6.6832   25.5558 H   0  0  0  0  0  0  0  0  0  0  0  0
    6.9789   -2.8357   18.0630 H   0  0  0  0  0  0  0  0  0  0  0  0
    7.0701   -1.4073   19.1484 H   0  0  0  0  0  0  0  0  0  0  0  0
    8.4774   -2.5137   18.9996 H   0  0  0  0  0  0  0  0  0  0  0  0
   13.6215    0.6157   23.2439 H   0  0  0  0  0  0  0  0  0  0  0  0
    8.2283   -1.2932   23.7795 H   0  0  0  0  0  0  0  0  0  0  0  0
    6.7467   -5.9583   24.0079 H   0  0  0  0  0  0  0  0  0  0  0  0
  1  2  1  0
  1  5  1  0
  1 12  1  0
  2 16  1  0
  2 18  2  0
  3  7  2  0
  3 14  1  0
  3 20  1  0
  4 11  1  0
  4 13  1  0
  4 19  2  0
  5 20  1  0
  5 22  1  6
  5 23  1  0
  6  8  2  0
  6 19  1  0
  6 24  1  0
  7 12  1  0
  7 21  1  0
  8  9  1  0
  8 25  1  0
  9 11  2  0
  9 20  1  0
 10 14  2  0
 10 15  1  0
 10 26  1  0
 11 27  1  0
 12 28  1  1
 12 29  1  0
 13 17  3  0
 14 30  1  0
 15 21  2  0
 15 31  1  0
 16 32  1  6
 16 33  1  0
 16 34  1  0
 19 35  1  0
 20 36  1  1
 21 37  1  0
M  END
$$$$
