LIG(A-305)
     RDKit          3D

 33 34  0  0  0  0  0  0  0  0999 V2000
    8.5919    0.6372   24.9501 N   0  0  0  0  0  0  0  0  0  0  0  0
    7.8479    1.3992   24.0472 C   0  0  0  0  0  0  0  0  0  0  0  0
    8.3209    2.3972   23.4801 O   0  0  0  0  0  0  0  0  0  0  0  0
    9.9759    0.9682   25.2761 C   0  0  1  0  0  0  0  0  0  0  0  0
    4.1899    0.2932   24.7613 C   0  0  1  0  0  0  0  0  0  0  0  0
    4.3618    0.9882   22.4893 C   0  0  1  0  0  0  0  0  0  0  0  0
    5.7578    1.5952   22.7343 C   0  0  1  0  0  0  0  0  0  0  0  0
   10.8959    0.3442   24.2640 C   0  0  0  0  0  0  0  0  0  0  0  0
   12.0599    1.0042   23.8800 C   0  0  0  0  0  0  0  0  0  0  0  0
   12.9078    0.4252   22.9389 C   0  0  0  0  0  0  0  0  0  0  0  0
   12.5708   -0.8108   22.3760 C   0  0  0  0  0  0  0  0  0  0  0  0
   13.4088   -1.3838   21.3939 C   0  0  0  0  0  0  0  0  0  0  0  0
   11.4108   -1.4788   22.7610 C   0  0  0  0  0  0  0  0  0  0  0  0
   10.5749   -0.8998   23.7071 C   0  0  0  0  0  0  0  0  0  0  0  0
    5.6229    0.7892   25.0633 C   0  0  1  0  0  0  0  0  0  0  0  0
   14.1107   -1.8208   20.5919 N   0  0  0  0  0  0  0  0  0  0  0  0
    6.4779    0.9022   23.8362 N   0  0  0  0  0  0  0  0  0  0  0  0
    3.6169    1.0222   23.6904 O   0  0  0  0  0  0  0  0  0  0  0  0
    8.1656   -0.1560   25.3850 H   0  0  0  0  0  0  0  0  0  0  0  0
   10.1039    2.0606   25.2625 H   0  0  0  0  0  0  0  0  0  0  0  0
   10.2183    0.5830   26.2776 H   0  0  0  0  0  0  0  0  0  0  0  0
    4.2272   -0.7727   24.4921 H   0  0  0  0  0  0  0  0  0  0  0  0
    3.5675    0.4230   25.6590 H   0  0  0  0  0  0  0  0  0  0  0  0
    3.8389    1.5709   21.7166 H   0  0  0  0  0  0  0  0  0  0  0  0
    4.4687   -0.0537   22.1533 H   0  0  0  0  0  0  0  0  0  0  0  0
    6.3506    1.5078   21.8117 H   0  0  0  0  0  0  0  0  0  0  0  0
    5.6428    2.6572   22.9970 H   0  0  0  0  0  0  0  0  0  0  0  0
   12.3050    1.9636   24.3110 H   0  0  0  0  0  0  0  0  0  0  0  0
   13.8185    0.9263   22.6460 H   0  0  0  0  0  0  0  0  0  0  0  0
   11.1640   -2.4371   22.3285 H   0  0  0  0  0  0  0  0  0  0  0  0
    9.6743   -1.4107   24.0141 H   0  0  0  0  0  0  0  0  0  0  0  0
    5.5579    1.7799   25.5369 H   0  0  0  0  0  0  0  0  0  0  0  0
    6.0992    0.0814   25.7577 H   0  0  0  0  0  0  0  0  0  0  0  0
  1  2  1  0
  1  4  1  0
  1 19  1  0
  2  3  2  0
  2 17  1  0
  4  8  1  0
  4 20  1  1
  4 21  1  0
  5 15  1  0
  5 18  1  0
  5 22  1  6
  5 23  1  0
  6  7  1  0
  6 18  1  0
  6 24  1  6
  6 25  1  0
  7 17  1  0
  7 26  1  6
  7 27  1  0
  8  9  2  0
  8 14  1  0
  9 10  1  0
  9 28  1  0
 10 11  2  0
 10 29  1  0
 11 12  1  0
 11 13  1  0
 12 16  3  0
 13 14  2  0
 13 30  1  0
 14 31  1  0
 15 17  1  0
 15 32  1  1
 15 33  1  0
M  END
$$$$
