LIG(A-307)
     RDKit          3D

 54 58  0  0  1  0  0  0  0  0999 V2000
    8.6229    6.8202   22.8007 N   0  0  0  0  0  0  0  0  0  0  0  0
    7.9508    5.9013   22.8148 C   0  0  0  0  0  0  0  0  0  0  0  0
    7.0459    4.7444   22.7926 C   0  0  1  0  0  0  0  0  0  0  0  0
    5.6899    4.9204   23.4404 C   0  0  1  0  0  0  0  0  0  0  0  0
    5.7934    4.9219   21.9629 C   0  0  2  0  0  0  0  0  0  0  0  0
    7.7335    3.3842   22.8192 C   0  0  1  0  0  0  0  0  0  0  0  0
    7.9591    2.6471   24.4268 S   0  0  2  0  0  0  0  0  0  0  0  0
    6.7269    2.0519   24.8374 O   0  0  0  0  0  0  0  0  0  0  0  0
    8.5764    3.6209   25.2701 O   0  0  0  0  0  0  0  0  0  0  0  0
    9.0280    1.4369   24.2255 N   0  0  0  0  0  0  0  0  0  0  0  0
   10.4303    1.6863   24.5774 C   0  0  1  0  0  0  0  0  0  0  0  0
    8.6551    0.0113   24.1803 C   0  0  1  0  0  0  0  0  0  0  0  0
    9.3668   -0.5855   22.9634 C   0  0  2  0  0  0  0  0  0  0  0  0
   10.8588   -0.2795   23.0085 C   0  0  0  0  0  0  0  0  0  0  0  0
   11.3309    0.8503   23.7010 C   0  0  0  0  0  0  0  0  0  0  0  0
   12.6765    1.1974   23.6054 C   0  0  0  0  0  0  0  0  0  0  0  0
   13.5595    0.4403   22.8598 C   0  0  0  0  0  0  0  0  0  0  0  0
   11.7647   -1.0611   22.2858 C   0  0  0  0  0  0  0  0  0  0  0  0
   13.0957   -0.6847   22.2194 C   0  0  0  0  0  0  0  0  0  0  0  0
   14.2029   -1.6295   21.2611 Cl  0  0  0  0  0  0  0  0  0  0  0  0
    8.7551    0.0622   21.7190 C   0  0  0  0  0  0  0  0  0  0  0  0
    9.2722    1.0303   21.1727 O   0  0  0  0  0  0  0  0  0  0  0  0
    7.5831   -0.4819   21.2965 N   0  0  0  0  0  0  0  0  0  0  0  0
    6.7860   -0.0551   20.2050 C   0  0  0  0  0  0  0  0  0  0  0  0
    5.6144    0.7306   20.4575 C   0  0  0  0  0  0  0  0  0  0  0  0
    5.0919    0.9761   21.7548 C   0  0  0  0  0  0  0  0  0  0  0  0
    3.9625    1.7265   21.9286 C   0  0  0  0  0  0  0  0  0  0  0  0
    3.2948    2.2678   20.8365 C   0  0  0  0  0  0  0  0  0  0  0  0
    3.7592    2.0637   19.5675 C   0  0  0  0  0  0  0  0  0  0  0  0
    4.9261    1.2905   19.3427 C   0  0  0  0  0  0  0  0  0  0  0  0
    5.4365    1.0236   18.0478 C   0  0  0  0  0  0  0  0  0  0  0  0
    6.5071    0.2810   17.8090 N   0  0  0  0  0  0  0  0  0  0  0  0
    7.1511   -0.2372   18.8673 C   0  0  0  0  0  0  0  0  0  0  0  0
    5.2145    4.0728   23.9557 H   0  0  0  0  0  0  0  0  0  0  0  0
    5.4544    5.8529   23.9743 H   0  0  0  0  0  0  0  0  0  0  0  0
    5.3945    4.0754   21.3846 H   0  0  0  0  0  0  0  0  0  0  0  0
    5.6344    5.8555   21.4032 H   0  0  0  0  0  0  0  0  0  0  0  0
    7.1304    2.6914   22.2140 H   0  0  0  0  0  0  0  0  0  0  0  0
    8.7269    3.5014   22.3614 H   0  0  0  0  0  0  0  0  0  0  0  0
   10.6609    2.7514   24.4280 H   0  0  0  0  0  0  0  0  0  0  0  0
   10.5959    1.4196   25.6317 H   0  0  0  0  0  0  0  0  0  0  0  0
    8.9830   -0.4966   25.0992 H   0  0  0  0  0  0  0  0  0  0  0  0
    7.5654   -0.0932   24.0723 H   0  0  0  0  0  0  0  0  0  0  0  0
    9.2078   -1.6736   22.9344 H   0  0  0  0  0  0  0  0  0  0  0  0
   13.0361    2.0742   24.1235 H   0  0  0  0  0  0  0  0  0  0  0  0
   14.5977    0.7276   22.7812 H   0  0  0  0  0  0  0  0  0  0  0  0
   11.4279   -1.9547   21.7815 H   0  0  0  0  0  0  0  0  0  0  0  0
    7.2464   -1.2696   21.8124 H   0  0  0  0  0  0  0  0  0  0  0  0
    5.5944    0.5636   22.6173 H   0  0  0  0  0  0  0  0  0  0  0  0
    3.5851    1.9006   22.9254 H   0  0  0  0  0  0  0  0  0  0  0  0
    2.4015    2.8545   20.9920 H   0  0  0  0  0  0  0  0  0  0  0  0
    3.2330    2.4951   18.7289 H   0  0  0  0  0  0  0  0  0  0  0  0
    4.9198    1.4528   17.2021 H   0  0  0  0  0  0  0  0  0  0  0  0
    8.0222   -0.8440   18.6692 H   0  0  0  0  0  0  0  0  0  0  0  0
  1  2  3  0
  3  2  1  1
  3  4  1  0
  3  5  1  0
  3  6  1  0
  4  5  1  0
  4 34  1  6
  4 35  1  0
  5 36  1  6
  5 37  1  0
  6  7  1  0
  6 38  1  6
  6 39  1  0
  7  8  2  0
  7  9  2  0
  7 10  1  6
 10 11  1  0
 10 12  1  0
 11 15  1  0
 11 40  1  1
 11 41  1  0
 12 13  1  0
 12 42  1  1
 12 43  1  0
 13 14  1  0
 13 21  1  0
 13 44  1  6
 14 15  2  0
 14 18  1  0
 15 16  1  0
 16 17  2  0
 16 45  1  0
 17 19  1  0
 17 46  1  0
 18 19  2  0
 18 47  1  0
 19 20  1  0
 21 22  2  0
 21 23  1  0
 23 24  1  0
 23 48  1  0
 24 25  2  0
 24 33  1  0
 25 26  1  0
 25 30  1  0
 26 27  2  0
 26 49  1  0
 27 28  1  0
 27 50  1  0
 28 29  2  0
 28 51  1  0
 29 30  1  0
 29 52  1  0
 30 31  2  0
 31 32  1  0
 31 53  1  0
 32 33  2  0
 33 54  1  0
M  END
$$$$
