LIG(A-305)
     RDKit          3D

 29 30  0  0  0  0  0  0  0  0999 V2000
   14.4564   -1.8896   20.5248 N   0  0  0  0  0  0  0  0  0  0  0  0
   13.7205   -1.4486   21.2789 C   0  0  0  0  0  0  0  0  0  0  0  0
   12.8236   -0.8856   22.2559 C   0  0  0  0  0  0  0  0  0  0  0  0
   13.3257   -0.1475   23.3249 C   0  0  0  0  0  0  0  0  0  0  0  0
   12.4517    0.4345   24.2279 C   0  0  0  0  0  0  0  0  0  0  0  0
   11.0837    0.2784   24.0681 C   0  0  0  0  0  0  0  0  0  0  0  0
   11.4486   -1.0476   22.1031 C   0  0  0  0  0  0  0  0  0  0  0  0
   10.5686   -0.4596   23.0081 C   0  0  0  0  0  0  0  0  0  0  0  0
    9.0776   -0.6016   22.8163 C   0  0  1  0  0  0  0  0  0  0  0  0
    8.5925    0.1043   21.5653 C   0  0  0  0  0  0  0  0  0  0  0  0
    9.2004    1.0533   21.0702 O   0  0  0  0  0  0  0  0  0  0  0  0
    7.4395   -0.3867   21.0644 N   0  0  0  0  0  0  0  0  0  0  0  0
    6.7124    0.1243   19.9715 C   0  0  0  0  0  0  0  0  0  0  0  0
    7.1932   -0.0008   18.6684 C   0  0  0  0  0  0  0  0  0  0  0  0
    6.6061    0.5652   17.6074 N   0  0  0  0  0  0  0  0  0  0  0  0
    5.4911    1.2732   17.8245 C   0  0  0  0  0  0  0  0  0  0  0  0
    4.9263    1.4452   19.0776 C   0  0  0  0  0  0  0  0  0  0  0  0
    5.5474    0.8573   20.1655 C   0  0  0  0  0  0  0  0  0  0  0  0
   14.3920   -0.0295   23.4491 H   0  0  0  0  0  0  0  0  0  0  0  0
   12.8362    1.0101   25.0570 H   0  0  0  0  0  0  0  0  0  0  0  0
   10.4089    0.7362   24.7762 H   0  0  0  0  0  0  0  0  0  0  0  0
   11.0636   -1.6312   21.2799 H   0  0  0  0  0  0  0  0  0  0  0  0
    8.8305   -1.6706   22.7384 H   0  0  0  0  0  0  0  0  0  0  0  0
    8.5653   -0.1694   23.6884 H   0  0  0  0  0  0  0  0  0  0  0  0
    7.0628   -1.1960   21.5152 H   0  0  0  0  0  0  0  0  0  0  0  0
    8.0868   -0.5853   18.5070 H   0  0  0  0  0  0  0  0  0  0  0  0
    5.0060    1.7351   16.9774 H   0  0  0  0  0  0  0  0  0  0  0  0
    4.0231    2.0241   19.2024 H   0  0  0  0  0  0  0  0  0  0  0  0
    5.1309    0.9669   21.1560 H   0  0  0  0  0  0  0  0  0  0  0  0
  1  2  3  0
  2  3  1  0
  3  4  2  0
  3  7  1  0
  4  5  1  0
  4 19  1  0
  5  6  2  0
  5 20  1  0
  6  8  1  0
  6 21  1  0
  7  8  2  0
  7 22  1  0
  8  9  1  0
  9 10  1  0
  9 23  1  6
  9 24  1  0
 10 11  2  0
 10 12  1  0
 12 13  1  0
 12 25  1  0
 13 14  2  0
 13 18  1  0
 14 15  1  0
 14 26  1  0
 15 16  2  0
 16 17  1  0
 16 27  1  0
 17 18  2  0
 17 28  1  0
 18 29  1  0
M  END
$$$$
