LIG(A-305)
     RDKit          3D

 38 40  0  0  0  0  0  0  0  0999 V2000
    8.9059    0.4810   21.1081 O   0  0  0  0  0  0  0  0  0  0  0  0
    8.1919   -0.4480   21.4912 C   0  0  0  0  0  0  0  0  0  0  0  0
    7.0258   -0.7840   20.9103 N   0  0  0  0  0  0  0  0  0  0  0  0
    6.4248   -0.0710   19.8563 C   0  0  0  0  0  0  0  0  0  0  0  0
    6.9207   -0.1531   18.5543 C   0  0  0  0  0  0  0  0  0  0  0  0
    6.4177    0.5499   17.5353 N   0  0  0  0  0  0  0  0  0  0  0  0
    5.3768    1.3489   17.7923 C   0  0  0  0  0  0  0  0  0  0  0  0
    4.8038    1.4790   19.0433 C   0  0  0  0  0  0  0  0  0  0  0  0
    5.3369    0.7791   20.1193 C   0  0  0  0  0  0  0  0  0  0  0  0
    4.8140    0.9992   21.5173 C   0  0  1  0  0  0  0  0  0  0  0  0
    8.5339   -1.2779   22.7122 C   0  0  1  0  0  0  0  0  0  0  0  0
    9.7380   -0.6860   23.3992 C   0  0  0  0  0  0  0  0  0  0  0  0
   11.0149   -1.0060   22.9551 C   0  0  0  0  0  0  0  0  0  0  0  0
   12.1340   -0.3321   23.4220 C   0  0  0  0  0  0  0  0  0  0  0  0
   13.5050   -0.7171   22.9169 C   0  0  2  0  0  0  0  0  0  0  0  0
   13.6739   -1.3862   21.5850 C   0  0  1  0  0  0  0  0  0  0  0  0
   13.9139   -2.1572   22.8200 C   0  0  2  0  0  0  0  0  0  0  0  0
   11.9651    0.6760   24.3600 C   0  0  0  0  0  0  0  0  0  0  0  0
   10.7051    0.9811   24.8450 C   0  0  0  0  0  0  0  0  0  0  0  0
    9.5981    0.2951   24.3701 C   0  0  0  0  0  0  0  0  0  0  0  0
    6.5534   -1.5967   21.2512 H   0  0  0  0  0  0  0  0  0  0  0  0
    7.7508   -0.8165   18.3611 H   0  0  0  0  0  0  0  0  0  0  0  0
    4.9611    1.9239   16.9780 H   0  0  0  0  0  0  0  0  0  0  0  0
    3.9468    2.1210   19.1840 H   0  0  0  0  0  0  0  0  0  0  0  0
    5.6121    1.4210   22.1457 H   0  0  0  0  0  0  0  0  0  0  0  0
    3.9648    1.6976   21.4853 H   0  0  0  0  0  0  0  0  0  0  0  0
    4.4833    0.0391   21.9404 H   0  0  0  0  0  0  0  0  0  0  0  0
    7.6800   -1.2799   23.4056 H   0  0  0  0  0  0  0  0  0  0  0  0
    8.7580   -2.3098   22.4036 H   0  0  0  0  0  0  0  0  0  0  0  0
   11.1392   -1.7971   22.2303 H   0  0  0  0  0  0  0  0  0  0  0  0
   14.3113   -0.0222   23.1941 H   0  0  0  0  0  0  0  0  0  0  0  0
   12.7918   -1.6043   20.9649 H   0  0  0  0  0  0  0  0  0  0  0  0
   14.5190   -1.1119   20.9366 H   0  0  0  0  0  0  0  0  0  0  0  0
   13.2103   -2.9484   23.1182 H   0  0  0  0  0  0  0  0  0  0  0  0
   14.9376   -2.4560   23.0899 H   0  0  0  0  0  0  0  0  0  0  0  0
   12.8235    1.2272   24.7145 H   0  0  0  0  0  0  0  0  0  0  0  0
   10.5848    1.7519   25.5919 H   0  0  0  0  0  0  0  0  0  0  0  0
    8.6177    0.5265   24.7596 H   0  0  0  0  0  0  0  0  0  0  0  0
  1  2  2  0
  2  3  1  0
  2 11  1  0
  3  4  1  0
  3 21  1  0
  4  5  2  0
  4  9  1  0
  5  6  1  0
  5 22  1  0
  6  7  2  0
  7  8  1  0
  7 23  1  0
  8  9  2  0
  8 24  1  0
  9 10  1  0
 10 25  1  1
 10 26  1  0
 10 27  1  0
 11 12  1  0
 11 28  1  1
 11 29  1  0
 12 13  2  0
 12 20  1  0
 13 14  1  0
 13 30  1  0
 14 15  1  0
 14 18  2  0
 15 16  1  0
 15 17  1  0
 15 31  1  6
 16 17  1  0
 16 32  1  6
 16 33  1  0
 17 34  1  1
 17 35  1  0
 18 19  1  0
 18 36  1  0
 19 20  2  0
 19 37  1  0
 20 38  1  0
M  END
$$$$
