LIG(A-305)
     RDKit          3D

 27 28  0  0  0  0  0  0  0  0999 V2000
    8.8825    0.8743   20.7135 O   0  0  0  0  0  0  0  0  0  0  0  0
    8.4495   -0.1926   21.1406 C   0  0  0  0  0  0  0  0  0  0  0  0
    9.1415   -0.9237   22.0935 N   0  0  0  0  0  0  0  0  0  0  0  0
   10.3576   -0.4598   22.5863 C   0  0  0  0  0  0  0  0  0  0  0  0
   11.2666   -1.1939   23.2882 C   0  0  0  0  0  0  0  0  0  0  0  0
   12.4448   -0.4681   23.5700 C   0  0  0  0  0  0  0  0  0  0  0  0
   10.9428    1.1421   22.2961 S   0  0  0  0  0  0  0  0  0  0  0  0
   12.4369    0.8049   23.0889 C   0  0  0  0  0  0  0  0  0  0  0  0
   13.5240    1.8278   23.1197 C   0  0  1  0  0  0  0  0  0  0  0  0
    7.2633   -0.7255   20.7368 N   0  0  0  0  0  0  0  0  0  0  0  0
    6.3853   -0.0954   19.8319 C   0  0  0  0  0  0  0  0  0  0  0  0
    6.7091   -0.0015   18.4788 C   0  0  0  0  0  0  0  0  0  0  0  0
    5.9980    0.7165   17.6019 N   0  0  0  0  0  0  0  0  0  0  0  0
    4.9312    1.3777   18.0670 C   0  0  0  0  0  0  0  0  0  0  0  0
    4.5194    1.3338   19.3851 C   0  0  0  0  0  0  0  0  0  0  0  0
    5.2544    0.5758   20.2790 C   0  0  0  0  0  0  0  0  0  0  0  0
    8.7654   -1.7877   22.4282 H   0  0  0  0  0  0  0  0  0  0  0  0
   11.1041   -2.2167   23.5947 H   0  0  0  0  0  0  0  0  0  0  0  0
   13.2768   -0.8854   24.1177 H   0  0  0  0  0  0  0  0  0  0  0  0
   14.4031    1.4456   22.5801 H   0  0  0  0  0  0  0  0  0  0  0  0
   13.1716    2.7519   22.6382 H   0  0  0  0  0  0  0  0  0  0  0  0
   13.7984    2.0398   24.1637 H   0  0  0  0  0  0  0  0  0  0  0  0
    6.9992   -1.6172   21.1042 H   0  0  0  0  0  0  0  0  0  0  0  0
    7.5771   -0.5351   18.1208 H   0  0  0  0  0  0  0  0  0  0  0  0
    4.3610    1.9784   17.3739 H   0  0  0  0  0  0  0  0  0  0  0  0
    3.6449    1.8781   19.7097 H   0  0  0  0  0  0  0  0  0  0  0  0
    4.9522    0.5067   21.3136 H   0  0  0  0  0  0  0  0  0  0  0  0
  1  2  2  0
  2  3  1  0
  2 10  1  0
  3  4  1  0
  3 17  1  0
  4  5  2  0
  4  7  1  0
  5  6  1  0
  5 18  1  0
  6  8  2  0
  6 19  1  0
  7  8  1  0
  8  9  1  0
  9 20  1  6
  9 21  1  0
  9 22  1  0
 10 11  1  0
 10 23  1  0
 11 12  2  0
 11 16  1  0
 12 13  1  0
 12 24  1  0
 13 14  2  0
 14 15  1  0
 14 25  1  0
 15 16  2  0
 15 26  1  0
 16 27  1  0
M  END
$$$$
