LIG(A-305)
     RDKit          3D

 38 41  0  0  1  0  0  0  0  0999 V2000
    9.5440    0.6083   21.0441 O   0  0  0  0  0  0  0  0  0  0  0  0
    8.8400   -0.2246   21.6092 C   0  0  0  0  0  0  0  0  0  0  0  0
    9.3751   -1.1086   22.7392 C   0  0  2  0  0  0  0  0  0  0  0  0
    8.6741   -0.8516   24.0902 C   0  0  1  0  0  0  0  0  0  0  0  0
    9.0922    0.4854   24.6482 C   0  0  1  0  0  0  0  0  0  0  0  0
   10.5152    0.5774   24.8441 O   0  0  0  0  0  0  0  0  0  0  0  0
   12.5881    0.6404   23.7740 C   0  0  0  0  0  0  0  0  0  0  0  0
   11.2881    0.1574   23.7901 C   0  0  0  0  0  0  0  0  0  0  0  0
   10.8511   -0.7846   22.8561 C   0  0  0  0  0  0  0  0  0  0  0  0
   11.7820   -1.3046   21.9621 C   0  0  0  0  0  0  0  0  0  0  0  0
   13.4851    0.1484   22.8449 C   0  0  0  0  0  0  0  0  0  0  0  0
   13.0760   -0.8326   21.9710 C   0  0  0  0  0  0  0  0  0  0  0  0
   14.2300   -1.5317   20.8849 Cl  0  0  0  0  0  0  0  0  0  0  0  0
    7.5240   -0.3686   21.3513 N   0  0  0  0  0  0  0  0  0  0  0  0
    6.8029   -0.1027   20.1743 C   0  0  0  0  0  0  0  0  0  0  0  0
    7.3188   -0.1677   18.8823 C   0  0  0  0  0  0  0  0  0  0  0  0
    5.5698    0.9453   17.9434 C   0  0  0  0  0  0  0  0  0  0  0  0
    4.9219    1.1133   19.1894 C   0  0  0  0  0  0  0  0  0  0  0  0
    6.7268    0.3213   17.7873 N   0  0  0  0  0  0  0  0  0  0  0  0
    3.7329    1.8533   19.3944 C   0  0  0  0  0  0  0  0  0  0  0  0
    3.7600    1.4774   21.6455 C   0  0  0  0  0  0  0  0  0  0  0  0
    4.9120    0.7504   21.5864 C   0  0  0  0  0  0  0  0  0  0  0  0
    3.1639    2.0323   20.5815 N   0  0  0  0  0  0  0  0  0  0  0  0
    5.5419    0.5493   20.3354 C   0  0  0  0  0  0  0  0  0  0  0  0
    9.2513   -2.1663   22.4636 H   0  0  0  0  0  0  0  0  0  0  0  0
    7.5843   -0.8583   23.9412 H   0  0  0  0  0  0  0  0  0  0  0  0
    8.9520   -1.6445   24.8002 H   0  0  0  0  0  0  0  0  0  0  0  0
    8.7803    1.2738   23.9473 H   0  0  0  0  0  0  0  0  0  0  0  0
    8.5918    0.6364   25.6161 H   0  0  0  0  0  0  0  0  0  0  0  0
   12.8971    1.3951   24.4820 H   0  0  0  0  0  0  0  0  0  0  0  0
   11.4911   -2.0754   21.2638 H   0  0  0  0  0  0  0  0  0  0  0  0
   14.4949    0.5292   22.8053 H   0  0  0  0  0  0  0  0  0  0  0  0
    6.9783   -0.7176   22.1131 H   0  0  0  0  0  0  0  0  0  0  0  0
    8.2752   -0.6527   18.7541 H   0  0  0  0  0  0  0  0  0  0  0  0
    5.0908    1.3514   17.0647 H   0  0  0  0  0  0  0  0  0  0  0  0
    3.2590    2.2999   18.5329 H   0  0  0  0  0  0  0  0  0  0  0  0
    3.2982    1.6147   22.6121 H   0  0  0  0  0  0  0  0  0  0  0  0
    5.3395    0.3321   22.4857 H   0  0  0  0  0  0  0  0  0  0  0  0
  1  2  2  0
  2  3  1  0
  2 14  1  0
  3  4  1  0
  3  9  1  0
  3 25  1  6
  4  5  1  0
  4 26  1  6
  4 27  1  0
  5  6  1  0
  5 28  1  6
  5 29  1  0
  6  8  1  0
  7  8  2  0
  7 11  1  0
  7 30  1  0
  8  9  1  0
  9 10  2  0
 10 12  1  0
 10 31  1  0
 11 12  2  0
 11 32  1  0
 12 13  1  0
 14 15  1  0
 14 33  1  0
 15 16  2  0
 15 24  1  0
 16 19  1  0
 16 34  1  0
 17 18  1  0
 17 19  2  0
 17 35  1  0
 18 20  2  0
 18 24  1  0
 20 23  1  0
 20 36  1  0
 21 22  1  0
 21 23  2  0
 21 37  1  0
 22 24  2  0
 22 38  1  0
M  END
$$$$
