LIG(A-305)
     RDKit          3D

 34 36  0  0  0  0  0  0  0  0999 V2000
    9.8109    1.1461   21.2211 O   0  0  0  0  0  0  0  0  0  0  0  0
    9.5238    0.0531   21.6912 C   0  0  0  0  0  0  0  0  0  0  0  0
    8.4117   -0.6327   21.3372 N   0  0  0  0  0  0  0  0  0  0  0  0
    7.5107   -0.2016   20.3253 C   0  0  0  0  0  0  0  0  0  0  0  0
    7.8777   -0.1447   18.9772 C   0  0  0  0  0  0  0  0  0  0  0  0
    7.0657    0.2925   18.0053 N   0  0  0  0  0  0  0  0  0  0  0  0
    5.8347    0.6746   18.3583 C   0  0  0  0  0  0  0  0  0  0  0  0
    5.3788    0.6656   19.6624 C   0  0  0  0  0  0  0  0  0  0  0  0
    6.2178    0.2255   20.6833 C   0  0  0  0  0  0  0  0  0  0  0  0
    5.7569    0.2476   22.1173 C   0  0  1  0  0  0  0  0  0  0  0  0
   10.4388   -0.6360   22.6861 C   0  0  1  0  0  0  0  0  0  0  0  0
    9.8207   -1.6949   23.5711 C   0  0  0  0  0  0  0  0  0  0  0  0
   10.2315   -3.0210   23.4531 C   0  0  0  0  0  0  0  0  0  0  0  0
    9.8075   -3.9619   24.3901 C   0  0  0  0  0  0  0  0  0  0  0  0
   10.0933   -5.3220   24.5301 N   0  0  0  0  0  0  0  0  0  0  0  0
    9.4533   -5.6829   25.6251 C   0  0  0  0  0  0  0  0  0  0  0  0
    8.7675   -4.6738   26.2122 N   0  0  0  0  0  0  0  0  0  0  0  0
    8.9736   -3.5628   25.4341 C   0  0  0  0  0  0  0  0  0  0  0  0
    8.5227   -2.2558   25.5482 C   0  0  0  0  0  0  0  0  0  0  0  0
    8.9468   -1.3388   24.5992 C   0  0  0  0  0  0  0  0  0  0  0  0
    8.2130   -1.4893   21.8134 H   0  0  0  0  0  0  0  0  0  0  0  0
    8.8704   -0.4710   18.7044 H   0  0  0  0  0  0  0  0  0  0  0  0
    5.1607    1.0081   17.5832 H   0  0  0  0  0  0  0  0  0  0  0  0
    4.3766    0.9983   19.8891 H   0  0  0  0  0  0  0  0  0  0  0  0
    6.4078    0.9143   22.7020 H   0  0  0  0  0  0  0  0  0  0  0  0
    4.7207    0.6138   22.1637 H   0  0  0  0  0  0  0  0  0  0  0  0
    5.8053   -0.7695   22.5336 H   0  0  0  0  0  0  0  0  0  0  0  0
   11.2496   -1.1127   22.1157 H   0  0  0  0  0  0  0  0  0  0  0  0
   10.8594    0.1402   23.3423 H   0  0  0  0  0  0  0  0  0  0  0  0
   10.8759   -3.3186   22.6390 H   0  0  0  0  0  0  0  0  0  0  0  0
    9.4743   -6.6891   26.0169 H   0  0  0  0  0  0  0  0  0  0  0  0
    8.2196   -4.7277   27.0470 H   0  0  0  0  0  0  0  0  0  0  0  0
    7.8624   -1.9621   26.3508 H   0  0  0  0  0  0  0  0  0  0  0  0
    8.5911   -0.3207   24.6569 H   0  0  0  0  0  0  0  0  0  0  0  0
  1  2  2  0
  2  3  1  0
  2 11  1  0
  3  4  1  0
  3 21  1  0
  4  5  2  0
  4  9  1  0
  5  6  1  0
  5 22  1  0
  6  7  2  0
  7  8  1  0
  7 23  1  0
  8  9  2  0
  8 24  1  0
  9 10  1  0
 10 25  1  1
 10 26  1  0
 10 27  1  0
 11 12  1  0
 11 28  1  6
 11 29  1  0
 12 13  2  0
 12 20  1  0
 13 14  1  0
 13 30  1  0
 14 15  1  0
 14 18  2  0
 15 16  2  0
 16 17  1  0
 16 31  1  0
 17 18  1  0
 17 32  1  0
 18 19  1  0
 19 20  2  0
 19 33  1  0
 20 34  1  0
M  END
$$$$
