LIG(A-306)
     RDKit          3D

 33 35  0  0  0  0  0  0  0  0999 V2000
    9.1348    1.0063   21.3846 O   0  0  0  0  0  0  0  0  0  0  0  0
    8.7348   -0.0817   21.7977 C   0  0  0  0  0  0  0  0  0  0  0  0
    9.3268   -0.7490   23.0250 C   0  0  1  0  0  0  0  0  0  0  0  0
   10.8055   -0.4599   23.1688 C   0  0  0  0  0  0  0  0  0  0  0  0
   11.2565    0.5242   24.0400 C   0  0  0  0  0  0  0  0  0  0  0  0
   12.5898    0.9035   24.0563 C   0  0  0  0  0  0  0  0  0  0  0  0
   13.4981    0.2990   23.2006 C   0  0  0  0  0  0  0  0  0  0  0  0
   11.7272   -1.1001   22.3450 C   0  0  0  0  0  0  0  0  0  0  0  0
   13.0530   -0.7109   22.3700 C   0  0  0  0  0  0  0  0  0  0  0  0
   14.1967   -1.5384   21.3466 Cl  0  0  0  0  0  0  0  0  0  0  0  0
    7.7041   -0.7623   21.2110 N   0  0  0  0  0  0  0  0  0  0  0  0
    7.0666   -0.3290   20.0476 C   0  0  0  0  0  0  0  0  0  0  0  0
    5.9285    0.4567   20.0807 N   0  0  0  0  0  0  0  0  0  0  0  0
    5.6331    0.7592   18.7505 C   0  0  0  0  0  0  0  0  0  0  0  0
    6.5152    0.1951   17.9227 N   0  0  0  0  0  0  0  0  0  0  0  0
    7.3942   -0.4740   18.7387 C   0  0  0  0  0  0  0  0  0  0  0  0
    5.1723    0.9438   21.1306 C   0  0  0  0  0  0  0  0  0  0  0  0
    4.1244    1.7571   20.8728 C   0  0  0  0  0  0  0  0  0  0  0  0
    3.7991    2.1001   19.5354 C   0  0  0  0  0  0  0  0  0  0  0  0
    4.5246    1.6066   18.4894 C   0  0  0  0  0  0  0  0  0  0  0  0
    8.8036   -0.3776   23.9185 H   0  0  0  0  0  0  0  0  0  0  0  0
    9.1838   -1.8365   22.9419 H   0  0  0  0  0  0  0  0  0  0  0  0
   10.5590    0.9999   24.7135 H   0  0  0  0  0  0  0  0  0  0  0  0
   12.9222    1.6725   24.7378 H   0  0  0  0  0  0  0  0  0  0  0  0
   14.5319    0.6112   23.1839 H   0  0  0  0  0  0  0  0  0  0  0  0
   11.4078   -1.8969   21.6897 H   0  0  0  0  0  0  0  0  0  0  0  0
    7.3919   -1.6118   21.6363 H   0  0  0  0  0  0  0  0  0  0  0  0
    6.5324    0.2483   16.9242 H   0  0  0  0  0  0  0  0  0  0  0  0
    8.2399   -1.0441   18.3833 H   0  0  0  0  0  0  0  0  0  0  0  0
    5.4170    0.6766   22.1480 H   0  0  0  0  0  0  0  0  0  0  0  0
    3.5327    2.1473   21.6877 H   0  0  0  0  0  0  0  0  0  0  0  0
    2.9666    2.7603   19.3421 H   0  0  0  0  0  0  0  0  0  0  0  0
    4.2577    1.8584   17.4736 H   0  0  0  0  0  0  0  0  0  0  0  0
  1  2  2  0
  2  3  1  0
  2 11  1  0
  3  4  1  0
  3 21  1  1
  3 22  1  0
  4  5  2  0
  4  8  1  0
  5  6  1  0
  5 23  1  0
  6  7  2  0
  6 24  1  0
  7  9  1  0
  7 25  1  0
  8  9  2  0
  8 26  1  0
  9 10  1  0
 11 12  1  0
 11 27  1  0
 12 13  1  0
 12 16  2  0
 13 14  1  0
 13 17  1  0
 14 15  2  0
 14 20  1  0
 15 16  1  0
 15 28  1  0
 16 29  1  0
 17 18  2  0
 17 30  1  0
 18 19  1  0
 18 31  1  0
 19 20  2  0
 19 32  1  0
 20 33  1  0
M  CHG  1  15   1
M  END
$$$$
