LIG(A-304)
     RDKit          3D

 71 73  0  0  1  0  0  0  0  0999 V2000
   -6.3779    1.2887  -18.1036 C   0  0  0  0  0  0  0  0  0  0  0  0
   -7.6547   -3.2876  -19.5442 C   0  0  1  0  0  0  0  0  0  0  0  0
   -9.0645   -0.8744  -21.6100 C   0  0  0  0  0  0  0  0  0  0  0  0
  -10.0881    1.9490  -21.9036 C   0  0  0  0  0  0  0  0  0  0  0  0
  -12.1153    4.4559  -22.5563 C   0  0  0  0  0  0  0  0  0  0  0  0
   -5.5868    0.5243  -20.2005 C   0  0  1  0  0  0  0  0  0  0  0  0
   -4.9717    1.8817  -19.9017 C   0  0  1  0  0  0  0  0  0  0  0  0
  -10.9272    0.7074  -23.9675 C   0  0  1  0  0  0  0  0  0  0  0  0
   -6.8103    0.4292  -19.2816 C   0  0  1  0  0  0  0  0  0  0  0  0
  -10.4928   -0.4746  -21.8343 C   0  0  2  0  0  0  0  0  0  0  0  0
  -11.4575   -0.6938  -24.0651 C   0  0  1  0  0  0  0  0  0  0  0  0
  -11.1791   -1.4153  -22.7810 C   0  0  2  0  0  0  0  0  0  0  0  0
  -12.6235   -1.2041  -23.2327 C   0  0  1  0  0  0  0  0  0  0  0  0
  -13.4610   -0.2372  -22.4572 C   0  0  1  0  0  0  0  0  0  0  0  0
  -13.3374   -2.3849  -23.7712 C   0  0  1  0  0  0  0  0  0  0  0  0
   -8.7542    4.9678  -23.8631 C   0  0  1  0  0  0  0  0  0  0  0  0
   -7.7735    2.7170  -23.5878 C   0  0  1  0  0  0  0  0  0  0  0  0
   -7.9756    4.2662  -21.6665 C   0  0  1  0  0  0  0  0  0  0  0  0
   -7.0216   -0.9940  -18.8132 C   0  0  1  0  0  0  0  0  0  0  0  0
   -7.5394   -1.8504  -19.9604 C   0  0  2  0  0  0  0  0  0  0  0  0
  -10.0435    3.2303  -22.7055 C   0  0  2  0  0  0  0  0  0  0  0  0
  -13.0107    5.2003  -21.6142 C   0  0  2  0  0  0  0  0  0  0  0  0
   -8.6423    3.7748  -22.9424 C   0  0  1  0  0  0  0  0  0  0  0  0
   -6.6206   -4.0590  -19.5340 N   0  0  0  0  0  0  0  0  0  0  0  0
   -5.3893    2.1487  -18.5491 N   0  0  0  0  0  0  0  0  0  0  0  0
  -10.4160    0.7963  -22.5785 N   0  0  0  0  0  0  0  0  0  0  0  0
   -8.8630   -1.4603  -20.3847 N   0  0  0  0  0  0  0  0  0  0  0  0
  -10.9133    4.1259  -21.9985 N   0  0  0  0  0  0  0  0  0  0  0  0
   -6.8233    1.2242  -16.9701 O   0  0  0  0  0  0  0  0  0  0  0  0
   -8.1915   -0.6781  -22.4391 O   0  0  0  0  0  0  0  0  0  0  0  0
   -9.8621    1.9281  -20.7066 O   0  0  0  0  0  0  0  0  0  0  0  0
  -12.4232    4.2254  -23.7159 O   0  0  0  0  0  0  0  0  0  0  0  0
  -13.0199    4.7097  -20.3508 F   0  0  0  0  0  0  0  0  0  0  0  0
  -14.3032    5.1930  -22.0315 F   0  0  0  0  0  0  0  0  0  0  0  0
  -12.6253    6.4841  -21.4971 F   0  0  0  0  0  0  0  0  0  0  0  0
   -8.0544   -3.2858  -18.5193 H   0  0  0  0  0  0  0  0  0  0  0  0
   -8.3857   -3.7524  -20.2220 H   0  0  0  0  0  0  0  0  0  0  0  0
   -5.8907    0.4619  -21.2558 H   0  0  0  0  0  0  0  0  0  0  0  0
   -4.8721   -0.2813  -19.9764 H   0  0  0  0  0  0  0  0  0  0  0  0
   -3.8748    1.8409  -19.9740 H   0  0  0  0  0  0  0  0  0  0  0  0
   -5.3563    2.6480  -20.5908 H   0  0  0  0  0  0  0  0  0  0  0  0
  -10.1179    0.8715  -24.6941 H   0  0  0  0  0  0  0  0  0  0  0  0
  -11.7278    1.4421  -24.1381 H   0  0  0  0  0  0  0  0  0  0  0  0
   -7.7096    0.8342  -19.7685 H   0  0  0  0  0  0  0  0  0  0  0  0
  -11.0435   -0.3712  -20.8877 H   0  0  0  0  0  0  0  0  0  0  0  0
  -11.2460   -1.2395  -24.9965 H   0  0  0  0  0  0  0  0  0  0  0  0
  -10.7821   -2.4387  -22.8521 H   0  0  0  0  0  0  0  0  0  0  0  0
  -14.4688   -0.1902  -22.8957 H   0  0  0  0  0  0  0  0  0  0  0  0
  -13.5316   -0.5703  -21.4112 H   0  0  0  0  0  0  0  0  0  0  0  0
  -12.9983    0.7601  -22.4940 H   0  0  0  0  0  0  0  0  0  0  0  0
  -14.3599   -2.0970  -24.0570 H   0  0  0  0  0  0  0  0  0  0  0  0
  -12.8031   -2.7649  -24.6544 H   0  0  0  0  0  0  0  0  0  0  0  0
  -13.3793   -3.1701  -23.0021 H   0  0  0  0  0  0  0  0  0  0  0  0
   -9.2329    4.6612  -24.8048 H   0  0  0  0  0  0  0  0  0  0  0  0
   -9.3612    5.7478  -23.3803 H   0  0  0  0  0  0  0  0  0  0  0  0
   -7.7496    5.3633  -24.0742 H   0  0  0  0  0  0  0  0  0  0  0  0
   -8.2539    2.3602  -24.5108 H   0  0  0  0  0  0  0  0  0  0  0  0
   -6.7903    3.1472  -23.8290 H   0  0  0  0  0  0  0  0  0  0  0  0
   -7.6444    1.8744  -22.8924 H   0  0  0  0  0  0  0  0  0  0  0  0
   -8.6055    5.0354  -21.1958 H   0  0  0  0  0  0  0  0  0  0  0  0
   -7.8464    3.4229  -20.9722 H   0  0  0  0  0  0  0  0  0  0  0  0
   -6.9923    4.6957  -21.9088 H   0  0  0  0  0  0  0  0  0  0  0  0
   -6.0662   -1.4048  -18.4548 H   0  0  0  0  0  0  0  0  0  0  0  0
   -7.7548   -1.0022  -17.9933 H   0  0  0  0  0  0  0  0  0  0  0  0
   -6.8382   -1.7749  -20.8046 H   0  0  0  0  0  0  0  0  0  0  0  0
  -10.4855    3.0198  -23.6906 H   0  0  0  0  0  0  0  0  0  0  0  0
   -6.2360   -4.1127  -20.4554 H   0  0  0  0  0  0  0  0  0  0  0  0
   -5.9348   -3.6885  -18.9075 H   0  0  0  0  0  0  0  0  0  0  0  0
   -5.0038    2.8816  -17.9885 H   0  0  0  0  0  0  0  0  0  0  0  0
   -9.6426   -1.6186  -19.7788 H   0  0  0  0  0  0  0  0  0  0  0  0
  -10.6438    4.5021  -21.1120 H   0  0  0  0  0  0  0  0  0  0  0  0
  1  9  1  0
  1 25  1  0
  1 29  2  0
  2 20  1  0
  2 24  1  0
  2 36  1  1
  2 37  1  0
  3 10  1  0
  3 27  1  0
  3 30  2  0
  4 21  1  0
  4 26  1  0
  4 31  2  0
  5 22  1  0
  5 28  1  0
  5 32  2  0
  6  7  1  0
  6  9  1  0
  6 38  1  6
  6 39  1  0
  7 25  1  0
  7 40  1  1
  7 41  1  0
  8 11  1  0
  8 26  1  0
  8 42  1  6
  8 43  1  0
  9 19  1  0
  9 44  1  6
 10 12  1  0
 10 26  1  0
 10 45  1  1
 11 12  1  0
 13 11  1  6
 11 46  1  6
 12 13  1  0
 12 47  1  6
 13 14  1  0
 13 15  1  0
 14 48  1  6
 14 49  1  0
 14 50  1  0
 15 51  1  6
 15 52  1  0
 15 53  1  0
 16 23  1  0
 16 54  1  6
 16 55  1  0
 16 56  1  0
 17 23  1  0
 17 57  1  6
 17 58  1  0
 17 59  1  0
 18 23  1  0
 18 60  1  1
 18 61  1  0
 18 62  1  0
 19 20  1  0
 19 63  1  1
 19 64  1  0
 20 27  1  0
 20 65  1  6
 23 21  1  1
 21 28  1  0
 21 66  1  6
 22 33  1  1
 22 34  1  0
 22 35  1  0
 24 67  1  0
 24 68  1  0
 25 69  1  0
 27 70  1  0
 28 71  1  0
M  END
$$$$
