LIG(A-306)
     RDKit          3D

 49 52  0  0  1  0  0  0  0  0999 V2000
   10.7170    3.1259   24.3957 O   0  0  0  0  0  0  0  0  0  0  0  0
   10.3752    1.9838   24.1517 C   0  0  0  0  0  0  0  0  0  0  0  0
    9.0823    1.5476   24.3616 N   0  0  0  0  0  0  0  0  0  0  0  0
    8.1741    2.3605   25.1495 C   0  0  1  0  0  0  0  0  0  0  0  0
    7.3060    3.3303   24.3645 C   0  0  0  0  0  0  0  0  0  0  0  0
    6.3179    3.8402   24.8904 O   0  0  0  0  0  0  0  0  0  0  0  0
    7.6561    3.5884   23.1085 N   0  0  0  0  0  0  0  0  0  0  0  0
    6.8640    4.4392   22.2404 C   0  0  1  0  0  0  0  0  0  0  0  0
   11.2884    1.0309   23.4918 C   0  0  0  0  0  0  0  0  0  0  0  0
   12.6354    1.3691   23.3309 C   0  0  0  0  0  0  0  0  0  0  0  0
   13.5026    0.5023   22.6899 C   0  0  0  0  0  0  0  0  0  0  0  0
   13.0188   -0.6978   22.2099 C   0  0  0  0  0  0  0  0  0  0  0  0
   14.0960   -1.7667   21.3540 Cl  0  0  0  0  0  0  0  0  0  0  0  0
   11.6888   -1.0510   22.3438 C   0  0  0  0  0  0  0  0  0  0  0  0
   10.7997   -0.1691   22.9588 C   0  0  0  0  0  0  0  0  0  0  0  0
    9.3117   -0.4534   22.9437 C   0  0  1  0  0  0  0  0  0  0  0  0
    8.6665    0.1525   24.1916 C   0  0  2  0  0  0  0  0  0  0  0  0
    8.7027    0.2105   21.7056 C   0  0  0  0  0  0  0  0  0  0  0  0
    9.1496    1.2606   21.2396 O   0  0  0  0  0  0  0  0  0  0  0  0
    7.6118   -0.4137   21.1996 N   0  0  0  0  0  0  0  0  0  0  0  0
    6.8128    0.0032   20.1065 C   0  0  0  0  0  0  0  0  0  0  0  0
    5.6927    0.8590   20.3574 C   0  0  0  0  0  0  0  0  0  0  0  0
    5.2195    1.1830   21.6574 C   0  0  0  0  0  0  0  0  0  0  0  0
    4.1274    1.9868   21.8283 C   0  0  0  0  0  0  0  0  0  0  0  0
    3.4614    2.5207   20.7322 C   0  0  0  0  0  0  0  0  0  0  0  0
    3.8765    2.2397   19.4613 C   0  0  0  0  0  0  0  0  0  0  0  0
    4.9927    1.3939   19.2373 C   0  0  0  0  0  0  0  0  0  0  0  0
    5.4378    1.0259   17.9444 C   0  0  0  0  0  0  0  0  0  0  0  0
    6.4630    0.2161   17.7125 N   0  0  0  0  0  0  0  0  0  0  0  0
    7.1170   -0.2758   18.7735 C   0  0  0  0  0  0  0  0  0  0  0  0
    7.5077    1.6825   25.7029 H   0  0  0  0  0  0  0  0  0  0  0  0
    8.7753    2.9454   25.8613 H   0  0  0  0  0  0  0  0  0  0  0  0
    8.4958    3.1813   22.7489 H   0  0  0  0  0  0  0  0  0  0  0  0
    7.3458    4.5074   21.2538 H   0  0  0  0  0  0  0  0  0  0  0  0
    5.8568    4.0116   22.1277 H   0  0  0  0  0  0  0  0  0  0  0  0
    6.7885    5.4440   22.6816 H   0  0  0  0  0  0  0  0  0  0  0  0
   13.0010    2.3124   23.7090 H   0  0  0  0  0  0  0  0  0  0  0  0
   14.5438    0.7612   22.5670 H   0  0  0  0  0  0  0  0  0  0  0  0
   11.3402   -2.0042   21.9745 H   0  0  0  0  0  0  0  0  0  0  0  0
    9.1320   -1.5382   22.9158 H   0  0  0  0  0  0  0  0  0  0  0  0
    7.5721    0.1115   24.0889 H   0  0  0  0  0  0  0  0  0  0  0  0
    8.9740   -0.4265   25.0750 H   0  0  0  0  0  0  0  0  0  0  0  0
    7.3399   -1.2649   21.6484 H   0  0  0  0  0  0  0  0  0  0  0  0
    5.7303    0.7883   22.5232 H   0  0  0  0  0  0  0  0  0  0  0  0
    3.7785    2.2093   22.8258 H   0  0  0  0  0  0  0  0  0  0  0  0
    2.6076    3.1637   20.8862 H   0  0  0  0  0  0  0  0  0  0  0  0
    3.3501    2.6654   18.6198 H   0  0  0  0  0  0  0  0  0  0  0  0
    4.9096    1.4299   17.0934 H   0  0  0  0  0  0  0  0  0  0  0  0
    7.9457   -0.9413   18.5817 H   0  0  0  0  0  0  0  0  0  0  0  0
  1  2  2  0
  2  3  1  0
  2  9  1  0
  3  4  1  0
  3 17  1  0
  4  5  1  0
  4 31  1  1
  4 32  1  0
  5  6  2  0
  5  7  1  0
  7  8  1  0
  7 33  1  0
  8 34  1  6
  8 35  1  0
  8 36  1  0
  9 10  2  0
  9 15  1  0
 10 11  1  0
 10 37  1  0
 11 12  2  0
 11 38  1  0
 12 13  1  0
 12 14  1  0
 14 15  2  0
 14 39  1  0
 15 16  1  0
 16 17  1  0
 16 18  1  0
 16 40  1  6
 17 41  1  6
 17 42  1  0
 18 19  2  0
 18 20  1  0
 20 21  1  0
 20 43  1  0
 21 22  2  0
 21 30  1  0
 22 23  1  0
 22 27  1  0
 23 24  2  0
 23 44  1  0
 24 25  1  0
 24 45  1  0
 25 26  2  0
 25 46  1  0
 26 27  1  0
 26 47  1  0
 27 28  2  0
 28 29  1  0
 28 48  1  0
 29 30  2  0
 30 49  1  0
M  END
$$$$
