LIG(A-305)
     RDKit          3D

 34 35  0  0  0  0  0  0  0  0999 V2000
   14.3266   -1.9845   20.5020 N   0  0  0  0  0  0  0  0  0  0  0  0
   13.6236   -1.5265   21.2760 C   0  0  0  0  0  0  0  0  0  0  0  0
   12.6976   -0.9575   22.2250 C   0  0  0  0  0  0  0  0  0  0  0  0
   13.1566   -0.1424   23.2570 C   0  0  0  0  0  0  0  0  0  0  0  0
   12.2526    0.3965   24.1570 C   0  0  0  0  0  0  0  0  0  0  0  0
   10.8956    0.1595   24.0040 C   0  0  0  0  0  0  0  0  0  0  0  0
   11.3336   -1.2086   22.0870 C   0  0  0  0  0  0  0  0  0  0  0  0
   10.4226   -0.6256   22.9611 C   0  0  0  0  0  0  0  0  0  0  0  0
    8.9416   -0.8187   22.7411 C   0  0  1  0  0  0  0  0  0  0  0  0
    8.4835   -0.0477   21.5221 C   0  0  0  0  0  0  0  0  0  0  0  0
    9.0974    0.9313   21.1091 O   0  0  0  0  0  0  0  0  0  0  0  0
    7.3345   -0.5028   20.9781 N   0  0  0  0  0  0  0  0  0  0  0  0
    6.6455    0.1181   19.9081 C   0  0  0  0  0  0  0  0  0  0  0  0
    5.5014    0.8961   20.1592 C   0  0  0  0  0  0  0  0  0  0  0  0
    5.0064    1.1351   21.5672 C   0  0  1  0  0  0  0  0  0  0  0  0
    7.1224   -0.0429   18.6131 C   0  0  0  0  0  0  0  0  0  0  0  0
    6.5264    0.4981   17.5491 N   0  0  0  0  0  0  0  0  0  0  0  0
    5.4263    1.2280   17.7621 C   0  0  0  0  0  0  0  0  0  0  0  0
    4.8674    1.4710   19.0562 C   0  0  0  0  0  0  0  0  0  0  0  0
    3.7433    2.3020   19.1632 N   0  0  0  0  0  0  0  0  0  0  0  0
   14.2114    0.0680   23.3547 H   0  0  0  0  0  0  0  0  0  0  0  0
   12.6052    1.0021   24.9787 H   0  0  0  0  0  0  0  0  0  0  0  0
   10.1969    0.5911   24.7053 H   0  0  0  0  0  0  0  0  0  0  0  0
   10.9830   -1.8581   21.2987 H   0  0  0  0  0  0  0  0  0  0  0  0
    8.7338   -1.8886   22.5922 H   0  0  0  0  0  0  0  0  0  0  0  0
    8.3941   -0.4583   23.6245 H   0  0  0  0  0  0  0  0  0  0  0  0
    6.9413   -1.3397   21.3589 H   0  0  0  0  0  0  0  0  0  0  0  0
    5.7889    1.6427   22.1503 H   0  0  0  0  0  0  0  0  0  0  0  0
    4.1052    1.7650   21.5369 H   0  0  0  0  0  0  0  0  0  0  0  0
    4.7646    0.1714   22.0392 H   0  0  0  0  0  0  0  0  0  0  0  0
    8.0148   -0.6318   18.4611 H   0  0  0  0  0  0  0  0  0  0  0  0
    4.9302    1.6601   16.9056 H   0  0  0  0  0  0  0  0  0  0  0  0
    3.4794    2.6252   18.2544 H   0  0  0  0  0  0  0  0  0  0  0  0
    3.9616    3.0856   19.7447 H   0  0  0  0  0  0  0  0  0  0  0  0
  1  2  3  0
  2  3  1  0
  3  4  2  0
  3  7  1  0
  4  5  1  0
  4 21  1  0
  5  6  2  0
  5 22  1  0
  6  8  1  0
  6 23  1  0
  7  8  2  0
  7 24  1  0
  8  9  1  0
  9 10  1  0
  9 25  1  6
  9 26  1  0
 10 11  2  0
 10 12  1  0
 12 13  1  0
 12 27  1  0
 13 14  2  0
 13 16  1  0
 14 15  1  0
 14 19  1  0
 15 28  1  1
 15 29  1  0
 15 30  1  0
 16 17  2  0
 16 31  1  0
 17 18  1  0
 18 19  2  0
 18 32  1  0
 19 20  1  0
 20 33  1  0
 20 34  1  0
M  END
$$$$
