LIG(A-305)
     RDKit          3D

 38 40  0  0  0  0  0  0  0  0999 V2000
    8.9698    0.7468   21.0443 O   0  0  0  0  0  0  0  0  0  0  0  0
    8.4738   -0.3291   21.3564 C   0  0  0  0  0  0  0  0  0  0  0  0
    8.9650   -1.1191   22.5554 C   0  0  1  0  0  0  0  0  0  0  0  0
   10.4190   -0.8441   22.8672 C   0  0  0  0  0  0  0  0  0  0  0  0
   10.7791    0.0470   23.8691 C   0  0  0  0  0  0  0  0  0  0  0  0
   12.1021    0.4210   24.0450 C   0  0  0  0  0  0  0  0  0  0  0  0
   13.0910   -0.1010   23.2249 C   0  0  0  0  0  0  0  0  0  0  0  0
   11.4179   -1.4021   22.0771 C   0  0  0  0  0  0  0  0  0  0  0  0
   12.7299   -1.0181   22.2600 C   0  0  0  0  0  0  0  0  0  0  0  0
   13.9548   -1.6842   21.2139 Cl  0  0  0  0  0  0  0  0  0  0  0  0
    7.4238   -0.8762   20.7066 N   0  0  0  0  0  0  0  0  0  0  0  0
    6.6476   -0.2012   19.7386 C   0  0  0  0  0  0  0  0  0  0  0  0
    5.5717    0.6278   20.0967 C   0  0  0  0  0  0  0  0  0  0  0  0
    5.1028    0.6979   21.5337 C   0  0  1  0  0  0  0  0  0  0  0  0
    4.1529    1.8559   21.8228 C   0  0  1  0  0  0  0  0  0  0  0  0
    3.1468    2.0518   20.7049 C   0  0  1  0  0  0  0  0  0  0  0  0
    3.8566    2.3658   19.4078 C   0  0  1  0  0  0  0  0  0  0  0  0
    4.9356    1.3598   19.0847 C   0  0  0  0  0  0  0  0  0  0  0  0
    5.3814    1.1927   17.7927 C   0  0  0  0  0  0  0  0  0  0  0  0
    6.3944    0.3957   17.4366 N   0  0  0  0  0  0  0  0  0  0  0  0
    7.0145   -0.2883   18.4006 C   0  0  0  0  0  0  0  0  0  0  0  0
    8.3577   -0.8468   23.4312 H   0  0  0  0  0  0  0  0  0  0  0  0
    8.8450   -2.1922   22.3453 H   0  0  0  0  0  0  0  0  0  0  0  0
   10.0190    0.4537   24.5196 H   0  0  0  0  0  0  0  0  0  0  0  0
   12.3639    1.1218   24.8239 H   0  0  0  0  0  0  0  0  0  0  0  0
   14.1208    0.2036   23.3392 H   0  0  0  0  0  0  0  0  0  0  0  0
   11.1673   -2.1335   21.3231 H   0  0  0  0  0  0  0  0  0  0  0  0
    7.1798   -1.8211   20.9250 H   0  0  0  0  0  0  0  0  0  0  0  0
    4.5849   -0.2422   21.7744 H   0  0  0  0  0  0  0  0  0  0  0  0
    5.9861    0.8059   22.1804 H   0  0  0  0  0  0  0  0  0  0  0  0
    3.6109    1.6471   22.7569 H   0  0  0  0  0  0  0  0  0  0  0  0
    4.7409    2.7784   21.9383 H   0  0  0  0  0  0  0  0  0  0  0  0
    2.5572    1.1313   20.5821 H   0  0  0  0  0  0  0  0  0  0  0  0
    2.4763    2.8851   20.9623 H   0  0  0  0  0  0  0  0  0  0  0  0
    3.1185    2.3665   18.5922 H   0  0  0  0  0  0  0  0  0  0  0  0
    4.3152    3.3624   19.4882 H   0  0  0  0  0  0  0  0  0  0  0  0
    4.8779    1.7438   17.0123 H   0  0  0  0  0  0  0  0  0  0  0  0
    7.8352   -0.9361   18.1298 H   0  0  0  0  0  0  0  0  0  0  0  0
  1  2  2  0
  2  3  1  0
  2 11  1  0
  3  4  1  0
  3 22  1  1
  3 23  1  0
  4  5  2  0
  4  8  1  0
  5  6  1  0
  5 24  1  0
  6  7  2  0
  6 25  1  0
  7  9  1  0
  7 26  1  0
  8  9  2  0
  8 27  1  0
  9 10  1  0
 11 12  1  0
 11 28  1  0
 12 13  2  0
 12 21  1  0
 13 14  1  0
 13 18  1  0
 14 15  1  0
 14 29  1  1
 14 30  1  0
 15 16  1  0
 15 31  1  1
 15 32  1  0
 16 17  1  0
 16 33  1  6
 16 34  1  0
 17 18  1  0
 17 35  1  6
 17 36  1  0
 18 19  2  0
 19 20  1  0
 19 37  1  0
 20 21  2  0
 21 38  1  0
M  END
$$$$
