LIG(A-306)
     RDKit          3D

 33 35  0  0  0  0  0  0  0  0999 V2000
    9.1343    1.0062   21.3850 O   0  0  0  0  0  0  0  0  0  0  0  0
    8.7344   -0.0819   21.7981 C   0  0  0  0  0  0  0  0  0  0  0  0
    9.3266   -0.7488   23.0250 C   0  0  1  0  0  0  0  0  0  0  0  0
   10.8056   -0.4596   23.1690 C   0  0  0  0  0  0  0  0  0  0  0  0
   11.2565    0.5245   24.0399 C   0  0  0  0  0  0  0  0  0  0  0  0
   12.5894    0.9037   24.0559 C   0  0  0  0  0  0  0  0  0  0  0  0
   13.4985    0.2988   23.2008 C   0  0  0  0  0  0  0  0  0  0  0  0
   11.7276   -1.1005   22.3449 C   0  0  0  0  0  0  0  0  0  0  0  0
   13.0535   -0.7113   22.3699 C   0  0  0  0  0  0  0  0  0  0  0  0
   14.1966   -1.5381   21.3468 Cl  0  0  0  0  0  0  0  0  0  0  0  0
    7.7045   -0.7620   21.2111 N   0  0  0  0  0  0  0  0  0  0  0  0
    7.0664   -0.3291   20.0471 C   0  0  0  0  0  0  0  0  0  0  0  0
    5.9283    0.4557   20.0802 N   0  0  0  0  0  0  0  0  0  0  0  0
    5.6322    0.7597   18.7502 C   0  0  0  0  0  0  0  0  0  0  0  0
    6.5152    0.1958   17.9232 N   0  0  0  0  0  0  0  0  0  0  0  0
    7.3943   -0.4741   18.7381 C   0  0  0  0  0  0  0  0  0  0  0  0
    5.1723    0.9437   21.1302 C   0  0  0  0  0  0  0  0  0  0  0  0
    4.1251    1.7575   20.8733 C   0  0  0  0  0  0  0  0  0  0  0  0
    3.7990    2.1005   19.5353 C   0  0  0  0  0  0  0  0  0  0  0  0
    4.5250    1.6065   18.4903 C   0  0  0  0  0  0  0  0  0  0  0  0
    8.8034   -0.3774   23.9185 H   0  0  0  0  0  0  0  0  0  0  0  0
    9.1837   -1.8363   22.9420 H   0  0  0  0  0  0  0  0  0  0  0  0
   10.5590    1.0003   24.7135 H   0  0  0  0  0  0  0  0  0  0  0  0
   12.9216    1.6733   24.7369 H   0  0  0  0  0  0  0  0  0  0  0  0
   14.5323    0.6107   23.1849 H   0  0  0  0  0  0  0  0  0  0  0  0
   11.4081   -1.8974   21.6898 H   0  0  0  0  0  0  0  0  0  0  0  0
    7.3925   -1.6117   21.6363 H   0  0  0  0  0  0  0  0  0  0  0  0
    6.5328    0.2496   16.9248 H   0  0  0  0  0  0  0  0  0  0  0  0
    8.2398   -1.0442   18.3824 H   0  0  0  0  0  0  0  0  0  0  0  0
    5.4170    0.6762   22.1476 H   0  0  0  0  0  0  0  0  0  0  0  0
    3.5344    2.1484   21.6885 H   0  0  0  0  0  0  0  0  0  0  0  0
    2.9663    2.7603   19.3416 H   0  0  0  0  0  0  0  0  0  0  0  0
    4.2586    1.8585   17.4744 H   0  0  0  0  0  0  0  0  0  0  0  0
  1  2  2  0
  2  3  1  0
  2 11  1  0
  3  4  1  0
  3 21  1  1
  3 22  1  0
  4  5  2  0
  4  8  1  0
  5  6  1  0
  5 23  1  0
  6  7  2  0
  6 24  1  0
  7  9  1  0
  7 25  1  0
  8  9  2  0
  8 26  1  0
  9 10  1  0
 11 12  1  0
 11 27  1  0
 12 13  1  0
 12 16  2  0
 13 14  1  0
 13 17  1  0
 14 15  2  0
 14 20  1  0
 15 16  1  0
 15 28  1  0
 16 29  1  0
 17 18  2  0
 17 30  1  0
 18 19  1  0
 18 31  1  0
 19 20  2  0
 19 32  1  0
 20 33  1  0
M  CHG  1  15   1
M  END
$$$$
