LIG(A-305)
     RDKit          3D

 42 44  0  0  0  0  0  0  0  0999 V2000
    5.5416   -2.6969   20.7635 O   0  0  0  0  0  0  0  0  0  0  0  0
    6.2737   -1.7149   20.6944 C   0  0  0  0  0  0  0  0  0  0  0  0
    5.9777   -0.5670   19.7733 C   0  0  0  0  0  0  0  0  0  0  0  0
    4.9948    0.4031   20.1043 C   0  0  0  0  0  0  0  0  0  0  0  0
    4.3959    0.5272   21.3874 C   0  0  0  0  0  0  0  0  0  0  0  0
    3.4459    1.4763   21.6284 C   0  0  0  0  0  0  0  0  0  0  0  0
    3.0419    2.3422   20.6274 C   0  0  0  0  0  0  0  0  0  0  0  0
    3.5979    2.2782   19.3843 C   0  0  0  0  0  0  0  0  0  0  0  0
    4.5938    1.3141   19.0883 C   0  0  0  0  0  0  0  0  0  0  0  0
    5.2277    1.2130   17.8283 C   0  0  0  0  0  0  0  0  0  0  0  0
    6.1636    0.3179   17.5323 N   0  0  0  0  0  0  0  0  0  0  0  0
    6.5096   -0.5551   18.4853 C   0  0  0  0  0  0  0  0  0  0  0  0
    7.3527   -1.5700   21.4653 N   0  0  0  0  0  0  0  0  0  0  0  0
    7.6717   -2.5239   22.5193 C   0  0  1  0  0  0  0  0  0  0  0  0
    9.1458   -2.5530   22.8103 C   0  0  1  0  0  0  0  0  0  0  0  0
    9.6378   -1.2170   22.6192 O   0  0  0  0  0  0  0  0  0  0  0  0
   10.9718   -0.9751   22.8121 C   0  0  0  0  0  0  0  0  0  0  0  0
   11.3039    0.3489   23.1720 C   0  0  0  0  0  0  0  0  0  0  0  0
   10.2380    1.1880   23.3580 O   0  0  0  0  0  0  0  0  0  0  0  0
   10.5111    2.5410   23.7210 C   0  0  1  0  0  0  0  0  0  0  0  0
   11.9768   -1.9062   22.5971 C   0  0  0  0  0  0  0  0  0  0  0  0
   13.3018   -1.5252   22.7290 C   0  0  0  0  0  0  0  0  0  0  0  0
   13.6299   -0.2262   23.0819 C   0  0  0  0  0  0  0  0  0  0  0  0
   12.6380    0.7158   23.3009 C   0  0  0  0  0  0  0  0  0  0  0  0
    4.6969   -0.1390   22.1824 H   0  0  0  0  0  0  0  0  0  0  0  0
    3.0044    1.5526   22.6110 H   0  0  0  0  0  0  0  0  0  0  0  0
    2.2777    3.0770   20.8333 H   0  0  0  0  0  0  0  0  0  0  0  0
    3.2766    2.9682   18.6182 H   0  0  0  0  0  0  0  0  0  0  0  0
    4.9318    1.9084   17.0568 H   0  0  0  0  0  0  0  0  0  0  0  0
    7.2512   -1.3008   18.2398 H   0  0  0  0  0  0  0  0  0  0  0  0
    7.9574   -0.7875   21.3162 H   0  0  0  0  0  0  0  0  0  0  0  0
    7.1326   -2.2384   23.4347 H   0  0  0  0  0  0  0  0  0  0  0  0
    7.3504   -3.5270   22.2024 H   0  0  0  0  0  0  0  0  0  0  0  0
    9.3198   -2.8750   23.8476 H   0  0  0  0  0  0  0  0  0  0  0  0
    9.6532   -3.2446   22.1217 H   0  0  0  0  0  0  0  0  0  0  0  0
    9.5641    3.0889   23.8345 H   0  0  0  0  0  0  0  0  0  0  0  0
   11.0625    2.5611   24.6725 H   0  0  0  0  0  0  0  0  0  0  0  0
   11.1175    3.0159   22.9356 H   0  0  0  0  0  0  0  0  0  0  0  0
   11.7277   -2.9222   22.3285 H   0  0  0  0  0  0  0  0  0  0  0  0
   14.0862   -2.2471   22.5553 H   0  0  0  0  0  0  0  0  0  0  0  0
   14.6675    0.0543   23.1872 H   0  0  0  0  0  0  0  0  0  0  0  0
   12.8997    1.7285   23.5700 H   0  0  0  0  0  0  0  0  0  0  0  0
  1  2  2  0
  2  3  1  0
  2 13  1  0
  3  4  2  0
  3 12  1  0
  4  5  1  0
  4  9  1  0
  5  6  2  0
  5 25  1  0
  6  7  1  0
  6 26  1  0
  7  8  2  0
  7 27  1  0
  8  9  1  0
  8 28  1  0
  9 10  2  0
 10 11  1  0
 10 29  1  0
 11 12  2  0
 12 30  1  0
 13 14  1  0
 13 31  1  0
 14 15  1  0
 14 32  1  1
 14 33  1  0
 15 16  1  0
 15 34  1  1
 15 35  1  0
 16 17  1  0
 17 18  2  0
 17 21  1  0
 18 19  1  0
 18 24  1  0
 19 20  1  0
 20 36  1  1
 20 37  1  0
 20 38  1  0
 21 22  2  0
 21 39  1  0
 22 23  1  0
 22 40  1  0
 23 24  2  0
 23 41  1  0
 24 42  1  0
M  END
$$$$
