LIG(A-305)
     RDKit          3D

 49 52  0  0  0  0  0  0  0  0999 V2000
    9.0100    1.5214   21.1450 O   0  0  0  0  0  0  0  0  0  0  0  0
    8.9110    0.4444   21.7100 C   0  0  0  0  0  0  0  0  0  0  0  0
    8.2490   -0.7486   21.0170 C   0  0  1  0  0  0  0  0  0  0  0  0
    7.3280   -0.3257   19.9840 N   0  0  0  0  0  0  0  0  0  0  0  0
    6.1940    0.4243   20.0760 C   0  0  0  0  0  0  0  0  0  0  0  0
    5.3760    0.7984   21.1320 C   0  0  0  0  0  0  0  0  0  0  0  0
    4.2530    1.5624   20.8380 C   0  0  0  0  0  0  0  0  0  0  0  0
    3.9690    1.9433   19.5240 C   0  0  0  0  0  0  0  0  0  0  0  0
    4.8070    1.5763   18.4760 C   0  0  0  0  0  0  0  0  0  0  0  0
    5.9280    0.8033   18.7620 C   0  0  0  0  0  0  0  0  0  0  0  0
    6.9070    0.2813   17.9480 N   0  0  0  0  0  0  0  0  0  0  0  0
    7.7410   -0.3907   18.6920 N   0  0  0  0  0  0  0  0  0  0  0  0
    9.3820    0.2344   22.9730 N   0  0  0  0  0  0  0  0  0  0  0  0
    9.9450    1.3684   23.7010 C   0  0  1  0  0  0  0  0  0  0  0  0
   11.3820    1.5824   23.3770 C   0  0  0  0  0  0  0  0  0  0  0  0
   11.8540    2.7834   22.9929 N   0  0  0  0  0  0  0  0  0  0  0  0
   13.1980    2.7334   22.7599 N   0  0  0  0  0  0  0  0  0  0  0  0
   13.5450    1.4754   22.9940 C   0  0  0  0  0  0  0  0  0  0  0  0
   12.4460    0.7154   23.3870 C   0  0  0  0  0  0  0  0  0  0  0  0
    9.3090   -1.0246   23.6370 C   0  0  0  0  0  0  0  0  0  0  0  0
   10.1710   -2.0616   23.2940 C   0  0  0  0  0  0  0  0  0  0  0  0
   10.0840   -3.2816   23.9381 C   0  0  0  0  0  0  0  0  0  0  0  0
    8.3600   -1.2266   24.6280 C   0  0  0  0  0  0  0  0  0  0  0  0
    8.2830   -2.4376   25.2891 C   0  0  0  0  0  0  0  0  0  0  0  0
    9.1470   -3.4896   24.9641 C   0  0  0  0  0  0  0  0  0  0  0  0
    9.0970   -4.6846   25.6501 N   0  0  0  0  0  0  0  0  0  0  0  0
    8.0270   -4.9775   26.5961 C   0  0  1  0  0  0  0  0  0  0  0  0
    9.9960   -5.7776   25.3241 C   0  0  1  0  0  0  0  0  0  0  0  0
    9.0306   -1.3754   20.5627 H   0  0  0  0  0  0  0  0  0  0  0  0
    7.6982   -1.3355   21.7668 H   0  0  0  0  0  0  0  0  0  0  0  0
    5.6038    0.5063   22.1465 H   0  0  0  0  0  0  0  0  0  0  0  0
    3.5911    1.8656   21.6356 H   0  0  0  0  0  0  0  0  0  0  0  0
    3.0864    2.5311   19.3190 H   0  0  0  0  0  0  0  0  0  0  0  0
    4.5924    1.8844   17.4634 H   0  0  0  0  0  0  0  0  0  0  0  0
    9.3824    2.2755   23.4352 H   0  0  0  0  0  0  0  0  0  0  0  0
    9.8488    1.1803   24.7805 H   0  0  0  0  0  0  0  0  0  0  0  0
   13.7932    3.4844   22.4741 H   0  0  0  0  0  0  0  0  0  0  0  0
   14.5489    1.0902   22.8930 H   0  0  0  0  0  0  0  0  0  0  0  0
   12.4337   -0.3333   23.6448 H   0  0  0  0  0  0  0  0  0  0  0  0
   10.9110   -1.9127   22.5216 H   0  0  0  0  0  0  0  0  0  0  0  0
   10.7449   -4.0853   23.6488 H   0  0  0  0  0  0  0  0  0  0  0  0
    7.6760   -0.4313   24.8850 H   0  0  0  0  0  0  0  0  0  0  0  0
    7.5463   -2.5741   26.0669 H   0  0  0  0  0  0  0  0  0  0  0  0
    8.1811   -5.9781   27.0264 H   0  0  0  0  0  0  0  0  0  0  0  0
    8.0336   -4.2275   27.4007 H   0  0  0  0  0  0  0  0  0  0  0  0
    7.0587   -4.9478   26.0750 H   0  0  0  0  0  0  0  0  0  0  0  0
    9.7905   -6.6319   25.9859 H   0  0  0  0  0  0  0  0  0  0  0  0
    9.8419   -6.0792   24.2776 H   0  0  0  0  0  0  0  0  0  0  0  0
   11.0369   -5.4495   25.4617 H   0  0  0  0  0  0  0  0  0  0  0  0
  1  2  2  0
  2  3  1  0
  2 13  1  0
  3  4  1  0
  3 29  1  6
  3 30  1  0
  4  5  1  0
  4 12  1  0
  5  6  2  0
  5 10  1  0
  6  7  1  0
  6 31  1  0
  7  8  2  0
  7 32  1  0
  8  9  1  0
  8 33  1  0
  9 10  2  0
  9 34  1  0
 10 11  1  0
 11 12  2  0
 13 14  1  0
 13 20  1  0
 14 15  1  0
 14 35  1  6
 14 36  1  0
 15 16  2  0
 15 19  1  0
 16 17  1  0
 17 18  1  0
 17 37  1  0
 18 19  2  0
 18 38  1  0
 19 39  1  0
 20 21  2  0
 20 23  1  0
 21 22  1  0
 21 40  1  0
 22 25  2  0
 22 41  1  0
 23 24  2  0
 23 42  1  0
 24 25  1  0
 24 43  1  0
 25 26  1  0
 26 27  1  0
 26 28  1  0
 27 44  1  1
 27 45  1  0
 27 46  1  0
 28 47  1  1
 28 48  1  0
 28 49  1  0
M  END
$$$$
