LIG(A-306)
     RDKit          3D

 40 42  0  0  1  0  0  0  0  0999 V2000
    9.2927    0.9555   21.3344 O   0  0  0  0  0  0  0  0  0  0  0  0
    8.9363    0.0191   22.0345 C   0  0  0  0  0  0  0  0  0  0  0  0
    7.8423   -0.9229   21.5305 C   0  0  1  0  0  0  0  0  0  0  0  0
    7.1929   -0.3932   20.3481 N   0  0  0  0  0  0  0  0  0  0  0  0
    6.0794    0.3863   20.2498 C   0  0  0  0  0  0  0  0  0  0  0  0
    5.2016    0.9233   21.1796 C   0  0  0  0  0  0  0  0  0  0  0  0
    4.1955    1.7577   20.7109 C   0  0  0  0  0  0  0  0  0  0  0  0
    4.0703    2.0323   19.3503 C   0  0  0  0  0  0  0  0  0  0  0  0
    4.9451    1.4773   18.4256 C   0  0  0  0  0  0  0  0  0  0  0  0
    5.9682    0.6519   18.8893 C   0  0  0  0  0  0  0  0  0  0  0  0
    7.0025    0.0258   18.2318 N   0  0  0  0  0  0  0  0  0  0  0  0
    7.7277   -0.5976   19.1186 N   0  0  0  0  0  0  0  0  0  0  0  0
    9.4051   -0.1345   23.2918 N   0  0  0  0  0  0  0  0  0  0  0  0
    9.3141    1.0316   24.1639 C   0  0  1  0  0  0  0  0  0  0  0  0
   10.0660   -1.3096   23.9121 C   0  0  1  0  0  0  0  0  0  0  0  0
    9.3219   -2.6077   23.6148 C   0  0  1  0  0  0  0  0  0  0  0  0
   11.5465   -1.3030   23.5692 C   0  0  0  0  0  0  0  0  0  0  0  0
   12.4995   -1.1483   24.5661 C   0  0  0  0  0  0  0  0  0  0  0  0
   13.8492   -1.1817   24.2636 C   0  0  0  0  0  0  0  0  0  0  0  0
   14.2639   -1.3718   22.9672 C   0  0  0  0  0  0  0  0  0  0  0  0
   13.3329   -1.5145   21.9672 C   0  0  0  0  0  0  0  0  0  0  0  0
   11.9812   -1.4801   22.2637 C   0  0  0  0  0  0  0  0  0  0  0  0
    8.2926   -1.8963   21.2860 H   0  0  0  0  0  0  0  0  0  0  0  0
    7.0908   -1.0553   22.3228 H   0  0  0  0  0  0  0  0  0  0  0  0
    5.2972    0.7002   22.2320 H   0  0  0  0  0  0  0  0  0  0  0  0
    3.5009    2.1997   21.4099 H   0  0  0  0  0  0  0  0  0  0  0  0
    3.2812    2.6865   19.0101 H   0  0  0  0  0  0  0  0  0  0  0  0
    4.8352    1.6807   17.3706 H   0  0  0  0  0  0  0  0  0  0  0  0
    9.7249    0.7829   25.1535 H   0  0  0  0  0  0  0  0  0  0  0  0
    9.8882    1.8619   23.7268 H   0  0  0  0  0  0  0  0  0  0  0  0
    8.2604    1.3296   24.2687 H   0  0  0  0  0  0  0  0  0  0  0  0
   10.0037   -1.1653   25.0008 H   0  0  0  0  0  0  0  0  0  0  0  0
    9.8456   -3.4488   24.0926 H   0  0  0  0  0  0  0  0  0  0  0  0
    8.2975   -2.5418   24.0100 H   0  0  0  0  0  0  0  0  0  0  0  0
    9.2857   -2.7687   22.5272 H   0  0  0  0  0  0  0  0  0  0  0  0
   12.1844   -1.0003   25.5884 H   0  0  0  0  0  0  0  0  0  0  0  0
   14.5798   -1.0580   25.0494 H   0  0  0  0  0  0  0  0  0  0  0  0
   15.3181   -1.4088   22.7354 H   0  0  0  0  0  0  0  0  0  0  0  0
   13.6567   -1.6540   20.9463 H   0  0  0  0  0  0  0  0  0  0  0  0
   11.2572   -1.5924   21.4702 H   0  0  0  0  0  0  0  0  0  0  0  0
  1  2  2  0
  2  3  1  0
  2 13  1  0
  3  4  1  0
  3 23  1  6
  3 24  1  0
  4  5  1  0
  4 12  1  0
  5  6  2  0
  5 10  1  0
  6  7  1  0
  6 25  1  0
  7  8  2  0
  7 26  1  0
  8  9  1  0
  8 27  1  0
  9 10  2  0
  9 28  1  0
 10 11  1  0
 11 12  2  0
 13 14  1  0
 13 15  1  0
 14 29  1  1
 14 30  1  0
 14 31  1  0
 15 16  1  0
 15 17  1  0
 15 32  1  1
 16 33  1  1
 16 34  1  0
 16 35  1  0
 17 18  2  0
 17 22  1  0
 18 19  1  0
 18 36  1  0
 19 20  2  0
 19 37  1  0
 20 21  1  0
 20 38  1  0
 21 22  2  0
 21 39  1  0
 22 40  1  0
M  END
$$$$
