LIG(A-306)
     RDKit          3D

 47 50  0  0  1  0  0  0  0  0999 V2000
    9.7177    1.1319   21.1217 O   0  0  0  0  0  0  0  0  0  0  0  0
    9.2096    0.2080   21.7395 C   0  0  0  0  0  0  0  0  0  0  0  0
    9.9541   -0.4517   22.9322 C   0  0  1  0  0  0  0  0  0  0  0  0
   11.4557   -0.1386   22.9366 C   0  0  0  0  0  0  0  0  0  0  0  0
   12.2703   -0.8502   22.0544 C   0  0  0  0  0  0  0  0  0  0  0  0
   13.5906   -0.4788   21.8850 C   0  0  0  0  0  0  0  0  0  0  0  0
   14.5464   -1.2990   20.6757 Cl  0  0  0  0  0  0  0  0  0  0  0  0
   14.1555    0.5602   22.6031 C   0  0  0  0  0  0  0  0  0  0  0  0
   13.3780    1.2531   23.5154 C   0  0  0  0  0  0  0  0  0  0  0  0
   12.0425    0.9058   23.6755 C   0  0  0  0  0  0  0  0  0  0  0  0
   11.1019    1.8004   24.8564 S   0  0  2  0  0  0  0  0  0  0  0  0
   11.3851    3.1971   24.7321 O   0  0  0  0  0  0  0  0  0  0  0  0
   11.2445    1.1768   26.1403 O   0  0  0  0  0  0  0  0  0  0  0  0
    9.5768    1.5479   24.3470 N   0  0  0  0  0  0  0  0  0  0  0  0
    9.2479    0.1242   24.1850 C   0  0  2  0  0  0  0  0  0  0  0  0
    9.7698   -1.9839   22.9241 C   0  0  1  0  0  0  0  0  0  0  0  0
    7.9937   -0.2974   21.4265 N   0  0  0  0  0  0  0  0  0  0  0  0
    7.1714    0.1270   20.3502 C   0  0  0  0  0  0  0  0  0  0  0  0
    5.9905    0.8738   20.5099 C   0  0  0  0  0  0  0  0  0  0  0  0
    5.5789    1.3590   21.8845 C   0  0  1  0  0  0  0  0  0  0  0  0
    4.1828    1.9673   21.9379 C   0  0  1  0  0  0  0  0  0  0  0  0
    3.8809    2.8276   20.7261 C   0  0  1  0  0  0  0  0  0  0  0  0
    3.9762    2.0082   19.4581 C   0  0  1  0  0  0  0  0  0  0  0  0
    5.2578    1.2174   19.3625 C   0  0  0  0  0  0  0  0  0  0  0  0
    5.7534    0.8178   18.1350 C   0  0  0  0  0  0  0  0  0  0  0  0
    6.8870    0.1326   17.9625 N   0  0  0  0  0  0  0  0  0  0  0  0
    7.5744   -0.2110   19.0582 C   0  0  0  0  0  0  0  0  0  0  0  0
   11.8696   -1.6894   21.5054 H   0  0  0  0  0  0  0  0  0  0  0  0
   15.1911    0.8276   22.4537 H   0  0  0  0  0  0  0  0  0  0  0  0
   13.8059    2.0561   24.0971 H   0  0  0  0  0  0  0  0  0  0  0  0
    9.1711    2.2059   23.7127 H   0  0  0  0  0  0  0  0  0  0  0  0
    9.5810   -0.4288   25.0756 H   0  0  0  0  0  0  0  0  0  0  0  0
    8.1595    0.0139   24.0708 H   0  0  0  0  0  0  0  0  0  0  0  0
   10.3067   -2.4228   23.7781 H   0  0  0  0  0  0  0  0  0  0  0  0
    8.6992   -2.2247   23.0013 H   0  0  0  0  0  0  0  0  0  0  0  0
   10.1718   -2.3965   21.9871 H   0  0  0  0  0  0  0  0  0  0  0  0
    7.6438   -1.0348   22.0043 H   0  0  0  0  0  0  0  0  0  0  0  0
    5.6098    0.5041   22.5761 H   0  0  0  0  0  0  0  0  0  0  0  0
    6.3007    2.1218   22.2120 H   0  0  0  0  0  0  0  0  0  0  0  0
    3.4444    1.1534   21.9863 H   0  0  0  0  0  0  0  0  0  0  0  0
    4.1028    2.5892   22.8417 H   0  0  0  0  0  0  0  0  0  0  0  0
    2.8640    3.2370   20.8170 H   0  0  0  0  0  0  0  0  0  0  0  0
    4.6059    3.6536   20.6788 H   0  0  0  0  0  0  0  0  0  0  0  0
    3.1289    1.3075   19.4290 H   0  0  0  0  0  0  0  0  0  0  0  0
    3.9191    2.6888   18.5958 H   0  0  0  0  0  0  0  0  0  0  0  0
    5.1844    1.0778   17.2546 H   0  0  0  0  0  0  0  0  0  0  0  0
    8.4855   -0.7778   18.9362 H   0  0  0  0  0  0  0  0  0  0  0  0
  1  2  2  0
  3  2  1  6
  2 17  1  0
  3  4  1  0
  3 15  1  0
  3 16  1  0
  4  5  2  0
  4 10  1  0
  5  6  1  0
  5 28  1  0
  6  7  1  0
  6  8  2  0
  8  9  1  0
  8 29  1  0
  9 10  2  0
  9 30  1  0
 10 11  1  0
 11 12  2  0
 11 13  2  0
 11 14  1  6
 14 15  1  0
 14 31  1  0
 15 32  1  1
 15 33  1  0
 16 34  1  1
 16 35  1  0
 16 36  1  0
 17 18  1  0
 17 37  1  0
 18 19  2  0
 18 27  1  0
 19 20  1  0
 19 24  1  0
 20 21  1  0
 20 38  1  1
 20 39  1  0
 21 22  1  0
 21 40  1  1
 21 41  1  0
 22 23  1  0
 22 42  1  1
 22 43  1  0
 23 24  1  0
 23 44  1  6
 23 45  1  0
 24 25  2  0
 25 26  1  0
 25 46  1  0
 26 27  2  0
 27 47  1  0
M  END
$$$$
