LIG(A-306)
     RDKit          3D

 43 46  0  0  1  0  0  0  0  0999 V2000
    9.7109    1.0209   21.1676 O   0  0  0  0  0  0  0  0  0  0  0  0
    9.1509    0.1316   21.7887 C   0  0  0  0  0  0  0  0  0  0  0  0
    9.8632   -0.5570   22.9763 C   0  0  1  0  0  0  0  0  0  0  0  0
   11.3578   -0.2134   22.9323 C   0  0  0  0  0  0  0  0  0  0  0  0
   12.1716   -0.8879   22.0224 C   0  0  0  0  0  0  0  0  0  0  0  0
   13.4963   -0.5201   21.8779 C   0  0  0  0  0  0  0  0  0  0  0  0
   14.4842   -1.3752   20.7262 Cl  0  0  0  0  0  0  0  0  0  0  0  0
   14.0561    0.5048   22.6160 C   0  0  0  0  0  0  0  0  0  0  0  0
   13.2788    1.1674   23.5463 C   0  0  0  0  0  0  0  0  0  0  0  0
   11.9487    0.8057   23.7046 C   0  0  0  0  0  0  0  0  0  0  0  0
   11.0147    1.6597   24.9187 S   0  0  2  0  0  0  0  0  0  0  0  0
   11.2418    3.0661   24.7835 O   0  0  0  0  0  0  0  0  0  0  0  0
   11.2220    1.0443   26.1940 O   0  0  0  0  0  0  0  0  0  0  0  0
    9.4837    1.3481   24.4576 N   0  0  0  0  0  0  0  0  0  0  0  0
    9.2049   -0.0859   24.2940 C   0  0  2  0  0  0  0  0  0  0  0  0
    9.6964   -2.0826   22.8396 C   0  0  1  0  0  0  0  0  0  0  0  0
    7.9184   -0.3348   21.4669 N   0  0  0  0  0  0  0  0  0  0  0  0
    7.1298    0.0328   20.3498 C   0  0  0  0  0  0  0  0  0  0  0  0
    5.9271    0.7784   20.5638 C   0  0  0  0  0  0  0  0  0  0  0  0
    5.4156    1.1010   21.8478 C   0  0  0  0  0  0  0  0  0  0  0  0
    4.2547    1.8125   21.9859 C   0  0  0  0  0  0  0  0  0  0  0  0
    3.5562    2.2510   20.8644 C   0  0  0  0  0  0  0  0  0  0  0  0
    4.0106    1.9727   19.6070 C   0  0  0  0  0  0  0  0  0  0  0  0
    5.1975    1.2200   19.4201 C   0  0  0  0  0  0  0  0  0  0  0  0
    5.7059    0.8775   18.1415 C   0  0  0  0  0  0  0  0  0  0  0  0
    6.8183    0.1794   17.9429 N   0  0  0  0  0  0  0  0  0  0  0  0
    7.4976   -0.2268   19.0285 C   0  0  0  0  0  0  0  0  0  0  0  0
   11.7674   -1.6966   21.4315 H   0  0  0  0  0  0  0  0  0  0  0  0
   15.0886    0.7845   22.4676 H   0  0  0  0  0  0  0  0  0  0  0  0
   13.7027    1.9600   24.1450 H   0  0  0  0  0  0  0  0  0  0  0  0
    9.0312    1.9939   23.8426 H   0  0  0  0  0  0  0  0  0  0  0  0
    9.6254   -0.6464   25.1420 H   0  0  0  0  0  0  0  0  0  0  0  0
    8.1183   -0.2515   24.2478 H   0  0  0  0  0  0  0  0  0  0  0  0
   10.1995   -2.5837   23.6797 H   0  0  0  0  0  0  0  0  0  0  0  0
    8.6262   -2.3367   22.8490 H   0  0  0  0  0  0  0  0  0  0  0  0
   10.1442   -2.4168   21.8921 H   0  0  0  0  0  0  0  0  0  0  0  0
    7.5232   -1.0127   22.0869 H   0  0  0  0  0  0  0  0  0  0  0  0
    5.9506    0.7800   22.7294 H   0  0  0  0  0  0  0  0  0  0  0  0
    3.8775    2.0357   22.9729 H   0  0  0  0  0  0  0  0  0  0  0  0
    2.6452    2.8173   20.9901 H   0  0  0  0  0  0  0  0  0  0  0  0
    3.4614    2.3289   18.7480 H   0  0  0  0  0  0  0  0  0  0  0  0
    5.1531    1.2053   17.2735 H   0  0  0  0  0  0  0  0  0  0  0  0
    8.3990   -0.7991   18.8662 H   0  0  0  0  0  0  0  0  0  0  0  0
  1  2  2  0
  3  2  1  6
  2 17  1  0
  3  4  1  0
  3 15  1  0
  3 16  1  0
  4  5  2  0
  4 10  1  0
  5  6  1  0
  5 28  1  0
  6  7  1  0
  6  8  2  0
  8  9  1  0
  8 29  1  0
  9 10  2  0
  9 30  1  0
 10 11  1  0
 11 12  2  0
 11 13  2  0
 11 14  1  6
 14 15  1  0
 14 31  1  0
 15 32  1  1
 15 33  1  0
 16 34  1  1
 16 35  1  0
 16 36  1  0
 17 18  1  0
 17 37  1  0
 18 19  2  0
 18 27  1  0
 19 20  1  0
 19 24  1  0
 20 21  2  0
 20 38  1  0
 21 22  1  0
 21 39  1  0
 22 23  2  0
 22 40  1  0
 23 24  1  0
 23 41  1  0
 24 25  2  0
 25 26  1  0
 25 42  1  0
 26 27  2  0
 27 43  1  0
M  END
$$$$
