LIG(A-307)
     RDKit          3D

 34 36  0  0  0  0  0  0  0  0999 V2000
    9.3579    0.9422   21.1224 O   0  0  0  0  0  0  0  0  0  0  0  0
    8.8372   -0.0990   21.5282 C   0  0  0  0  0  0  0  0  0  0  0  0
    9.4626   -0.9373   22.6257 C   0  0  1  0  0  0  0  0  0  0  0  0
   10.9346   -0.6392   22.7863 C   0  0  0  0  0  0  0  0  0  0  0  0
   11.8725   -1.3088   22.0088 C   0  0  0  0  0  0  0  0  0  0  0  0
   13.1955   -0.9627   22.1215 C   0  0  0  0  0  0  0  0  0  0  0  0
   14.0822   -1.5413   21.2650 F   0  0  0  0  0  0  0  0  0  0  0  0
   13.6606   -0.0100   22.9957 C   0  0  0  0  0  0  0  0  0  0  0  0
   11.3638    0.3335   23.6855 C   0  0  0  0  0  0  0  0  0  0  0  0
   12.7078    0.6096   23.7692 C   0  0  0  0  0  0  0  0  0  0  0  0
   13.1220    1.5244   24.6884 F   0  0  0  0  0  0  0  0  0  0  0  0
    7.6841   -0.5949   21.0394 N   0  0  0  0  0  0  0  0  0  0  0  0
    6.9067   -0.0746   19.9918 C   0  0  0  0  0  0  0  0  0  0  0  0
    5.7617    0.7081   20.3225 C   0  0  0  0  0  0  0  0  0  0  0  0
    5.3181    0.9376   21.6527 C   0  0  0  0  0  0  0  0  0  0  0  0
    4.2431    1.7434   21.9053 C   0  0  0  0  0  0  0  0  0  0  0  0
    3.5567    2.3537   20.8658 C   0  0  0  0  0  0  0  0  0  0  0  0
    3.9383    2.1562   19.5676 C   0  0  0  0  0  0  0  0  0  0  0  0
    5.0453    1.3294   19.2599 C   0  0  0  0  0  0  0  0  0  0  0  0
    5.5069    1.1119   17.9397 C   0  0  0  0  0  0  0  0  0  0  0  0
    6.5679    0.3751   17.6321 N   0  0  0  0  0  0  0  0  0  0  0  0
    7.2362   -0.1981   18.6417 C   0  0  0  0  0  0  0  0  0  0  0  0
    8.9497   -0.7222   23.5748 H   0  0  0  0  0  0  0  0  0  0  0  0
    9.3396   -2.0013   22.3755 H   0  0  0  0  0  0  0  0  0  0  0  0
   11.5649   -2.0883   21.3275 H   0  0  0  0  0  0  0  0  0  0  0  0
   14.7094    0.2367   23.0704 H   0  0  0  0  0  0  0  0  0  0  0  0
   10.6542    0.8611   24.3055 H   0  0  0  0  0  0  0  0  0  0  0  0
    7.3424   -1.4292   21.4720 H   0  0  0  0  0  0  0  0  0  0  0  0
    5.8374    0.4690   22.4756 H   0  0  0  0  0  0  0  0  0  0  0  0
    3.9250    1.9065   22.9245 H   0  0  0  0  0  0  0  0  0  0  0  0
    2.7126    2.9911   21.0839 H   0  0  0  0  0  0  0  0  0  0  0  0
    3.3902    2.6353   18.7698 H   0  0  0  0  0  0  0  0  0  0  0  0
    4.9613    1.5748   17.1308 H   0  0  0  0  0  0  0  0  0  0  0  0
    8.0959   -0.8021   18.3914 H   0  0  0  0  0  0  0  0  0  0  0  0
  1  2  2  0
  2  3  1  0
  2 12  1  0
  3  4  1  0
  3 23  1  1
  3 24  1  0
  4  5  2  0
  4  9  1  0
  5  6  1  0
  5 25  1  0
  6  7  1  0
  6  8  2  0
  8 10  1  0
  8 26  1  0
  9 10  2  0
  9 27  1  0
 10 11  1  0
 12 13  1  0
 12 28  1  0
 13 14  2  0
 13 22  1  0
 14 15  1  0
 14 19  1  0
 15 16  2  0
 15 29  1  0
 16 17  1  0
 16 30  1  0
 17 18  2  0
 17 31  1  0
 18 19  1  0
 18 32  1  0
 19 20  2  0
 20 21  1  0
 20 33  1  0
 21 22  2  0
 22 34  1  0
M  END
$$$$
