LIG(A-306)
     RDKit          3D

 44 46  0  0  0  0  0  0  0  0999 V2000
   14.0097   -1.1239   21.5794 Cl  0  0  0  0  0  0  0  0  0  0  0  0
   12.6338   -0.7811   22.5895 C   0  0  0  0  0  0  0  0  0  0  0  0
   12.7778    0.0878   23.6536 C   0  0  0  0  0  0  0  0  0  0  0  0
   11.6538    0.4387   24.3806 C   0  0  0  0  0  0  0  0  0  0  0  0
   10.4088   -0.0523   24.0206 C   0  0  0  0  0  0  0  0  0  0  0  0
   11.4058   -1.3050   22.2434 C   0  0  0  0  0  0  0  0  0  0  0  0
   10.2668   -0.9071   22.9345 C   0  0  0  0  0  0  0  0  0  0  0  0
    8.8958   -1.2881   22.4245 C   0  0  1  0  0  0  0  0  0  0  0  0
    8.3057   -0.2720   21.4646 C   0  0  0  0  0  0  0  0  0  0  0  0
    8.8327    0.8240   21.2708 O   0  0  0  0  0  0  0  0  0  0  0  0
    7.1797   -0.6819   20.8406 N   0  0  0  0  0  0  0  0  0  0  0  0
    6.4987   -0.0548   19.7787 C   0  0  0  0  0  0  0  0  0  0  0  0
    6.8396   -0.2047   18.4357 C   0  0  0  0  0  0  0  0  0  0  0  0
    6.2386    0.4255   17.4188 N   0  0  0  0  0  0  0  0  0  0  0  0
    5.2366    1.2474   17.7129 C   0  0  0  0  0  0  0  0  0  0  0  0
    4.7656    1.4962   19.0250 C   0  0  0  0  0  0  0  0  0  0  0  0
    5.4167    0.8191   20.0949 C   0  0  0  0  0  0  0  0  0  0  0  0
    4.9577    1.0570   21.4129 C   0  0  0  0  0  0  0  0  0  0  0  0
    3.9237    1.9129   21.6520 C   0  0  0  0  0  0  0  0  0  0  0  0
    3.7046    2.3822   19.3221 C   0  0  0  0  0  0  0  0  0  0  0  0
    3.2877    2.6040   20.6241 C   0  0  0  0  0  0  0  0  0  0  0  0
    2.2247    3.6600   20.9323 C   0  0  2  0  0  0  0  0  0  0  0  0
    1.5036    4.0571   19.7493 O   0  0  0  0  0  0  0  0  0  0  0  0
    2.8877    4.9189   21.4794 C   0  0  1  0  0  0  0  0  0  0  0  0
    1.2097    3.1209   21.9352 C   0  0  1  0  0  0  0  0  0  0  0  0
   13.7479    0.4853   23.9129 H   0  0  0  0  0  0  0  0  0  0  0  0
   11.7471    1.0973   25.2314 H   0  0  0  0  0  0  0  0  0  0  0  0
    9.5377    0.2333   24.5917 H   0  0  0  0  0  0  0  0  0  0  0  0
   11.3292   -2.0216   21.4390 H   0  0  0  0  0  0  0  0  0  0  0  0
    8.9733   -2.2545   21.9049 H   0  0  0  0  0  0  0  0  0  0  0  0
    8.2188   -1.3881   23.2857 H   0  0  0  0  0  0  0  0  0  0  0  0
    6.7803   -1.5361   21.1736 H   0  0  0  0  0  0  0  0  0  0  0  0
    7.6488   -0.8792   18.1976 H   0  0  0  0  0  0  0  0  0  0  0  0
    4.7490    1.7598   16.8968 H   0  0  0  0  0  0  0  0  0  0  0  0
    5.4336    0.5530   22.2411 H   0  0  0  0  0  0  0  0  0  0  0  0
    3.5883    2.0591   22.6682 H   0  0  0  0  0  0  0  0  0  0  0  0
    3.2073    2.8985   18.5143 H   0  0  0  0  0  0  0  0  0  0  0  0
    1.0142    4.8515   19.9280 H   0  0  0  0  0  0  0  0  0  0  0  0
    2.1180    5.6736   21.6987 H   0  0  0  0  0  0  0  0  0  0  0  0
    3.4342    4.6739   22.4021 H   0  0  0  0  0  0  0  0  0  0  0  0
    3.5896    5.3177   20.7323 H   0  0  0  0  0  0  0  0  0  0  0  0
    0.4544    3.8927   22.1443 H   0  0  0  0  0  0  0  0  0  0  0  0
    0.7178    2.2306   21.5164 H   0  0  0  0  0  0  0  0  0  0  0  0
    1.7250    2.8500   22.8686 H   0  0  0  0  0  0  0  0  0  0  0  0
  1  2  1  0
  2  3  2  0
  2  6  1  0
  3  4  1  0
  3 26  1  0
  4  5  2  0
  4 27  1  0
  5  7  1  0
  5 28  1  0
  6  7  2  0
  6 29  1  0
  7  8  1  0
  8  9  1  0
  8 30  1  6
  8 31  1  0
  9 10  2  0
  9 11  1  0
 11 12  1  0
 11 32  1  0
 12 13  2  0
 12 17  1  0
 13 14  1  0
 13 33  1  0
 14 15  2  0
 15 16  1  0
 15 34  1  0
 16 17  2  0
 16 20  1  0
 17 18  1  0
 18 19  2  0
 18 35  1  0
 19 21  1  0
 19 36  1  0
 20 21  2  0
 20 37  1  0
 21 22  1  0
 22 23  1  6
 22 24  1  0
 22 25  1  0
 23 38  1  0
 24 39  1  1
 24 40  1  0
 24 41  1  0
 25 42  1  1
 25 43  1  0
 25 44  1  0
M  END
$$$$
