LIG(A-306)
     RDKit          3D

 53 56  0  0  1  0  0  0  0  0999 V2000
   11.1154    0.8857   26.3619 O   0  0  0  0  0  0  0  0  0  0  0  0
   11.1822    1.6767   25.1708 S   0  0  2  0  0  0  0  0  0  0  0  0
   11.6871    3.0117   25.2517 O   0  0  0  0  0  0  0  0  0  0  0  0
    9.6871    1.7346   24.5051 N   0  0  0  0  0  0  0  0  0  0  0  0
    9.4859    2.7185   23.4260 C   0  0  1  0  0  0  0  0  0  0  0  0
    8.2319    3.5505   23.6202 C   0  0  0  0  0  0  0  0  0  0  0  0
    7.7880    3.7825   24.7432 O   0  0  0  0  0  0  0  0  0  0  0  0
    7.6507    3.9924   22.5103 N   0  0  0  0  0  0  0  0  0  0  0  0
    6.3606    4.6564   22.5214 C   0  0  1  0  0  0  0  0  0  0  0  0
   12.0570    0.8067   23.9297 C   0  0  0  0  0  0  0  0  0  0  0  0
   13.3710    1.1697   23.6815 C   0  0  0  0  0  0  0  0  0  0  0  0
   14.0908    0.4877   22.7214 C   0  0  0  0  0  0  0  0  0  0  0  0
   13.4958   -0.5564   22.0496 C   0  0  0  0  0  0  0  0  0  0  0  0
   14.3446   -1.2894   20.7205 Cl  0  0  0  0  0  0  0  0  0  0  0  0
   12.1988   -0.9534   22.3118 C   0  0  0  0  0  0  0  0  0  0  0  0
   11.4249   -0.2264   23.2159 C   0  0  0  0  0  0  0  0  0  0  0  0
    9.9050   -0.4385   23.2081 C   0  0  2  0  0  0  0  0  0  0  0  0
    9.1291    0.3846   24.2772 C   0  0  2  0  0  0  0  0  0  0  0  0
    9.6441   -1.9395   23.4393 C   0  0  1  0  0  0  0  0  0  0  0  0
    9.2807    0.0134   21.8572 C   0  0  0  0  0  0  0  0  0  0  0  0
    9.8086    0.8924   21.1951 O   0  0  0  0  0  0  0  0  0  0  0  0
    8.0987   -0.5436   21.4954 N   0  0  0  0  0  0  0  0  0  0  0  0
    7.3195   -0.1987   20.3675 C   0  0  0  0  0  0  0  0  0  0  0  0
    6.1275    0.5633   20.5697 C   0  0  0  0  0  0  0  0  0  0  0  0
    5.6057    0.8863   21.8467 C   0  0  0  0  0  0  0  0  0  0  0  0
    4.4327    1.5723   21.9749 C   0  0  0  0  0  0  0  0  0  0  0  0
    3.7285    1.9872   20.8530 C   0  0  0  0  0  0  0  0  0  0  0  0
    4.1933    1.7141   19.5989 C   0  0  0  0  0  0  0  0  0  0  0  0
    5.3973    0.9912   19.4208 C   0  0  0  0  0  0  0  0  0  0  0  0
    5.9011    0.6261   18.1447 C   0  0  0  0  0  0  0  0  0  0  0  0
    6.9951   -0.0958   17.9576 N   0  0  0  0  0  0  0  0  0  0  0  0
    7.6723   -0.4908   19.0475 C   0  0  0  0  0  0  0  0  0  0  0  0
   10.3547    3.3926   23.3976 H   0  0  0  0  0  0  0  0  0  0  0  0
    9.4072    2.1811   22.4695 H   0  0  0  0  0  0  0  0  0  0  0  0
    8.1188    3.8629   21.6362 H   0  0  0  0  0  0  0  0  0  0  0  0
    6.0808    4.9323   21.4941 H   0  0  0  0  0  0  0  0  0  0  0  0
    5.6023    3.9771   22.9380 H   0  0  0  0  0  0  0  0  0  0  0  0
    6.4205    5.5632   23.1411 H   0  0  0  0  0  0  0  0  0  0  0  0
   13.8272    1.9780   24.2336 H   0  0  0  0  0  0  0  0  0  0  0  0
   15.1095    0.7698   22.4998 H   0  0  0  0  0  0  0  0  0  0  0  0
   11.7866   -1.8219   21.8195 H   0  0  0  0  0  0  0  0  0  0  0  0
    8.0860    0.4911   23.9444 H   0  0  0  0  0  0  0  0  0  0  0  0
    9.1560   -0.1678   25.2281 H   0  0  0  0  0  0  0  0  0  0  0  0
    8.5604   -2.1280   23.4396 H   0  0  0  0  0  0  0  0  0  0  0  0
   10.1171   -2.5219   22.6348 H   0  0  0  0  0  0  0  0  0  0  0  0
   10.0688   -2.2404   24.4083 H   0  0  0  0  0  0  0  0  0  0  0  0
    7.7433   -1.2696   22.0842 H   0  0  0  0  0  0  0  0  0  0  0  0
    6.1446    0.5850   22.7328 H   0  0  0  0  0  0  0  0  0  0  0  0
    4.0484    1.7945   22.9594 H   0  0  0  0  0  0  0  0  0  0  0  0
    2.8035    2.5315   20.9735 H   0  0  0  0  0  0  0  0  0  0  0  0
    3.6385    2.0522   18.7362 H   0  0  0  0  0  0  0  0  0  0  0  0
    5.3582    0.9581   17.2721 H   0  0  0  0  0  0  0  0  0  0  0  0
    8.5622   -1.0823   18.8912 H   0  0  0  0  0  0  0  0  0  0  0  0
  1  2  2  0
  2  3  2  0
  2  4  1  6
  2 10  1  0
  4  5  1  0
  4 18  1  0
  5  6  1  0
  5 33  1  6
  5 34  1  0
  6  7  2  0
  6  8  1  0
  8  9  1  0
  8 35  1  0
  9 36  1  6
  9 37  1  0
  9 38  1  0
 10 11  2  0
 10 16  1  0
 11 12  1  0
 11 39  1  0
 12 13  2  0
 12 40  1  0
 13 14  1  0
 13 15  1  0
 15 16  2  0
 15 41  1  0
 16 17  1  0
 17 18  1  0
 17 19  1  0
 17 20  1  6
 18 42  1  6
 18 43  1  0
 19 44  1  1
 19 45  1  0
 19 46  1  0
 20 21  2  0
 20 22  1  0
 22 23  1  0
 22 47  1  0
 23 24  2  0
 23 32  1  0
 24 25  1  0
 24 29  1  0
 25 26  2  0
 25 48  1  0
 26 27  1  0
 26 49  1  0
 27 28  2  0
 27 50  1  0
 28 29  1  0
 28 51  1  0
 29 30  2  0
 30 31  1  0
 30 52  1  0
 31 32  2  0
 32 53  1  0
M  END
$$$$
