LIG(A-305)
     RDKit          3D

 37 40  0  0  1  0  0  0  0  0999 V2000
    9.0046    1.3282   21.1563 O   0  0  0  0  0  0  0  0  0  0  0  0
    8.5435    0.2442   21.5003 C   0  0  0  0  0  0  0  0  0  0  0  0
    8.8996   -0.4088   22.8403 C   0  0  1  0  0  0  0  0  0  0  0  0
   10.4126   -0.4659   22.9231 C   0  0  0  0  0  0  0  0  0  0  0  0
   11.1695   -1.1360   21.9660 C   0  0  0  0  0  0  0  0  0  0  0  0
   12.5525   -1.0681   21.9809 C   0  0  0  0  0  0  0  0  0  0  0  0
   13.2006   -0.3212   22.9369 C   0  0  0  0  0  0  0  0  0  0  0  0
   12.4748    0.3349   23.9229 C   0  0  0  0  0  0  0  0  0  0  0  0
   11.0898    0.2360   23.9251 C   0  0  0  0  0  0  0  0  0  0  0  0
   10.4489    0.8220   24.9911 O   0  0  0  0  0  0  0  0  0  0  0  0
    9.1129    0.3361   25.2462 C   0  0  1  0  0  0  0  0  0  0  0  0
    8.2458    0.3782   24.0083 C   0  0  2  0  0  0  0  0  0  0  0  0
    7.6334   -0.4357   20.7444 N   0  0  0  0  0  0  0  0  0  0  0  0
    7.1493   -0.0117   19.5174 C   0  0  0  0  0  0  0  0  0  0  0  0
    5.8884    0.5084   19.3575 N   0  0  0  0  0  0  0  0  0  0  0  0
    5.8213    0.8604   18.0425 C   0  0  0  0  0  0  0  0  0  0  0  0
    6.9382    0.6063   17.4334 N   0  0  0  0  0  0  0  0  0  0  0  0
    7.7952    0.0383   18.3674 N   0  0  0  0  0  0  0  0  0  0  0  0
    4.8725    0.7545   20.3946 C   0  0  1  0  0  0  0  0  0  0  0  0
    5.0666    1.9075   21.3136 C   0  0  1  0  0  0  0  0  0  0  0  0
    4.0176    1.9626   20.2517 C   0  0  2  0  0  0  0  0  0  0  0  0
    8.5037   -1.4351   22.8481 H   0  0  0  0  0  0  0  0  0  0  0  0
   10.6721   -1.7159   21.2027 H   0  0  0  0  0  0  0  0  0  0  0  0
   13.1249   -1.6042   21.2384 H   0  0  0  0  0  0  0  0  0  0  0  0
   14.2777   -0.2444   22.9208 H   0  0  0  0  0  0  0  0  0  0  0  0
   12.9820    0.9153   24.6794 H   0  0  0  0  0  0  0  0  0  0  0  0
    9.1752   -0.7035   25.6003 H   0  0  0  0  0  0  0  0  0  0  0  0
    8.6507    0.9614   26.0243 H   0  0  0  0  0  0  0  0  0  0  0  0
    7.2677   -0.0688   24.2395 H   0  0  0  0  0  0  0  0  0  0  0  0
    8.1070    1.4256   23.7023 H   0  0  0  0  0  0  0  0  0  0  0  0
    7.2905   -1.3042   21.1024 H   0  0  0  0  0  0  0  0  0  0  0  0
    4.9525    1.2939   17.5697 H   0  0  0  0  0  0  0  0  0  0  0  0
    4.3885   -0.1339   20.8267 H   0  0  0  0  0  0  0  0  0  0  0  0
    4.7756    1.8236   22.3710 H   0  0  0  0  0  0  0  0  0  0  0  0
    5.9680    2.5324   21.2298 H   0  0  0  0  0  0  0  0  0  0  0  0
    2.9534    1.9194   20.5266 H   0  0  0  0  0  0  0  0  0  0  0  0
    4.1457    2.6282   19.3854 H   0  0  0  0  0  0  0  0  0  0  0  0
  1  2  2  0
  2  3  1  0
  2 13  1  0
  3  4  1  0
  3 12  1  0
  3 22  1  6
  4  5  2  0
  4  9  1  0
  5  6  1  0
  5 23  1  0
  6  7  2  0
  6 24  1  0
  7  8  1  0
  7 25  1  0
  8  9  2  0
  8 26  1  0
  9 10  1  0
 10 11  1  0
 11 12  1  0
 11 27  1  1
 11 28  1  0
 12 29  1  1
 12 30  1  0
 13 14  1  0
 13 31  1  0
 14 15  1  0
 14 18  2  0
 15 16  1  0
 15 19  1  0
 16 17  2  0
 16 32  1  0
 17 18  1  0
 19 20  1  0
 19 21  1  0
 19 33  1  1
 20 21  1  0
 20 34  1  1
 20 35  1  0
 21 36  1  1
 21 37  1  0
M  END
$$$$
