LIG(A-305)
     RDKit          3D

 25 26  0  0  0  0  0  0  0  0999 V2000
    6.6115   22.5579   -3.8216 F   0  0  0  0  0  0  0  0  0  0  0  0
    6.4896   22.8029   -2.4886 C   0  0  0  0  0  0  0  0  0  0  0  0
    5.5536   22.0850   -1.7746 C   0  0  0  0  0  0  0  0  0  0  0  0
    5.4086   22.3420   -0.4216 C   0  0  0  0  0  0  0  0  0  0  0  0
    7.3036   23.7669   -1.9397 C   0  0  0  0  0  0  0  0  0  0  0  0
    7.1687   24.0290   -0.5787 C   0  0  0  0  0  0  0  0  0  0  0  0
    6.2177   23.3070    0.1643 C   0  0  0  0  0  0  0  0  0  0  0  0
    6.3097   23.7251    1.4693 N   0  0  0  0  0  0  0  0  0  0  0  0
    7.2858   24.6800    1.5623 C   0  0  0  0  0  0  0  0  0  0  0  0
    7.8487   24.9000    0.3392 C   0  0  0  0  0  0  0  0  0  0  0  0
    8.9978   25.8219    0.0121 C   0  0  1  0  0  0  0  0  0  0  0  0
   10.2748   25.2159    0.4071 N   0  0  1  0  0  0  0  0  0  0  0  0
   10.4457   23.8639   -0.1268 C   0  0  1  0  0  0  0  0  0  0  0  0
    4.9453   21.3368   -2.2610 H   0  0  0  0  0  0  0  0  0  0  0  0
    4.6807   21.8028    0.1665 H   0  0  0  0  0  0  0  0  0  0  0  0
    8.0221   24.3016   -2.5433 H   0  0  0  0  0  0  0  0  0  0  0  0
    5.7515   23.3765    2.2272 H   0  0  0  0  0  0  0  0  0  0  0  0
    7.5695   25.1867    2.4729 H   0  0  0  0  0  0  0  0  0  0  0  0
    9.0090   26.0155   -1.0707 H   0  0  0  0  0  0  0  0  0  0  0  0
    8.8652   26.7706    0.5529 H   0  0  0  0  0  0  0  0  0  0  0  0
   11.0201   25.7904    0.0688 H   0  0  0  0  0  0  0  0  0  0  0  0
   10.3137   25.1731    1.4054 H   0  0  0  0  0  0  0  0  0  0  0  0
   11.4156   23.4601    0.1992 H   0  0  0  0  0  0  0  0  0  0  0  0
    9.6363   23.2181    0.2445 H   0  0  0  0  0  0  0  0  0  0  0  0
   10.4133   23.8970   -1.2258 H   0  0  0  0  0  0  0  0  0  0  0  0
  1  2  1  0
  2  3  2  0
  2  5  1  0
  3  4  1  0
  3 14  1  0
  4  7  2  0
  4 15  1  0
  5  6  2  0
  5 16  1  0
  6  7  1  0
  6 10  1  0
  7  8  1  0
  8  9  1  0
  8 17  1  0
  9 10  2  0
  9 18  1  0
 10 11  1  0
 11 12  1  0
 11 19  1  6
 11 20  1  0
 12 13  1  0
 12 21  1  6
 12 22  1  0
 13 23  1  6
 13 24  1  0
 13 25  1  0
M  CHG  1  12   1
M  END
$$$$
