LIG(A-305)
     RDKit          3D

 25 25  0  0  1  0  0  0  0  0999 V2000
    8.0530   -0.7966   20.2533 O   0  0  0  0  0  0  0  0  0  0  0  0
    8.3511   -1.9845   20.2923 C   0  0  0  0  0  0  0  0  0  0  0  0
    8.1511   -2.8946   19.1084 C   0  0  1  0  0  0  0  0  0  0  0  0
    8.8782   -2.5485   21.3903 N   0  0  0  0  0  0  0  0  0  0  0  0
    9.0562   -1.7944   22.6343 C   0  0  1  0  0  0  0  0  0  0  0  0
    8.6584   -2.6754   23.8124 C   0  0  1  0  0  0  0  0  0  0  0  0
   10.4742   -1.2733   22.7842 C   0  0  0  0  0  0  0  0  0  0  0  0
   10.7552   -0.2253   23.6561 C   0  0  0  0  0  0  0  0  0  0  0  0
   12.0302    0.2778   23.6970 C   0  0  0  0  0  0  0  0  0  0  0  0
   12.3102    1.2449   24.6090 F   0  0  0  0  0  0  0  0  0  0  0  0
   13.0482   -0.1832   22.9030 C   0  0  0  0  0  0  0  0  0  0  0  0
   12.7592   -1.2332   22.0580 C   0  0  0  0  0  0  0  0  0  0  0  0
   14.0061   -1.8532   21.0150 Cl  0  0  0  0  0  0  0  0  0  0  0  0
   11.4992   -1.7943   22.0011 C   0  0  0  0  0  0  0  0  0  0  0  0
    7.7196   -2.3222   18.2740 H   0  0  0  0  0  0  0  0  0  0  0  0
    9.1200   -3.3156   18.8019 H   0  0  0  0  0  0  0  0  0  0  0  0
    7.4676   -3.7109   19.3850 H   0  0  0  0  0  0  0  0  0  0  0  0
    9.1568   -3.5083   21.3588 H   0  0  0  0  0  0  0  0  0  0  0  0
    8.3783   -0.9282   22.6181 H   0  0  0  0  0  0  0  0  0  0  0  0
    8.7895   -2.1156   24.7502 H   0  0  0  0  0  0  0  0  0  0  0  0
    7.6048   -2.9735   23.7076 H   0  0  0  0  0  0  0  0  0  0  0  0
    9.2935   -3.5733   23.8296 H   0  0  0  0  0  0  0  0  0  0  0  0
    9.9824    0.1846   24.2894 H   0  0  0  0  0  0  0  0  0  0  0  0
   14.0337    0.2572   22.9379 H   0  0  0  0  0  0  0  0  0  0  0  0
   11.3097   -2.6353   21.3506 H   0  0  0  0  0  0  0  0  0  0  0  0
  1  2  2  0
  2  3  1  0
  2  4  1  0
  3 15  1  6
  3 16  1  0
  3 17  1  0
  4  5  1  0
  4 18  1  0
  5  6  1  0
  5  7  1  0
  5 19  1  6
  6 20  1  1
  6 21  1  0
  6 22  1  0
  7  8  2  0
  7 14  1  0
  8  9  1  0
  8 23  1  0
  9 10  1  0
  9 11  2  0
 11 12  1  0
 11 24  1  0
 12 13  1  0
 12 14  2  0
 14 25  1  0
M  END
$$$$
