LIG(A-305)
     RDKit          3D

 29 30  0  0  0  0  0  0  0  0999 V2000
    9.1785   -4.8802   26.5256 C   0  0  2  0  0  0  0  0  0  0  0  0
   10.4204   -4.7292   25.8104 C   0  0  1  0  0  0  0  0  0  0  0  0
   10.6613   -3.3202   25.2583 C   0  0  1  0  0  0  0  0  0  0  0  0
    9.7141   -1.5552   24.2344 C   0  0  1  0  0  0  0  0  0  0  0  0
   11.0930   -1.1983   23.6612 C   0  0  0  0  0  0  0  0  0  0  0  0
   11.9981   -0.0912   24.1940 C   0  0  0  0  0  0  0  0  0  0  0  0
   13.2120   -0.0393   23.4308 C   0  0  0  0  0  0  0  0  0  0  0  0
   11.7368   -1.8393   22.5541 C   0  0  0  0  0  0  0  0  0  0  0  0
    8.3383   -2.8902   25.3127 C   0  0  1  0  0  0  0  0  0  0  0  0
    8.0794   -4.3262   25.7768 C   0  0  2  0  0  0  0  0  0  0  0  0
    9.5541   -2.7432   24.5335 N   0  0  2  0  0  0  0  0  0  0  0  0
    9.2967   -4.2841   27.7946 O   0  0  0  0  0  0  0  0  0  0  0  0
   13.1808   -1.1683   22.2728 S   0  0  0  0  0  0  0  0  0  0  0  0
    8.9914   -5.9557   26.6609 H   0  0  0  0  0  0  0  0  0  0  0  0
   11.2449   -4.9768   26.4952 H   0  0  0  0  0  0  0  0  0  0  0  0
   10.4201   -5.4347   24.9665 H   0  0  0  0  0  0  0  0  0  0  0  0
   10.8942   -2.6586   26.1056 H   0  0  0  0  0  0  0  0  0  0  0  0
   11.5256   -3.3646   24.5794 H   0  0  0  0  0  0  0  0  0  0  0  0
    9.5580   -0.9533   25.1417 H   0  0  0  0  0  0  0  0  0  0  0  0
    8.9557   -1.2897   23.4832 H   0  0  0  0  0  0  0  0  0  0  0  0
   11.7599    0.5578   25.0237 H   0  0  0  0  0  0  0  0  0  0  0  0
   14.0249    0.6504   23.6036 H   0  0  0  0  0  0  0  0  0  0  0  0
   11.3166   -2.6565   21.9866 H   0  0  0  0  0  0  0  0  0  0  0  0
    7.4878   -2.5652   24.6953 H   0  0  0  0  0  0  0  0  0  0  0  0
    8.4140   -2.2457   26.2008 H   0  0  0  0  0  0  0  0  0  0  0  0
    7.1823   -4.3330   26.4132 H   0  0  0  0  0  0  0  0  0  0  0  0
    7.9055   -4.9552   24.8913 H   0  0  0  0  0  0  0  0  0  0  0  0
    9.4337   -3.2890   23.7042 H   0  0  0  0  0  0  0  0  0  0  0  0
    8.8834   -4.8392   28.4454 H   0  0  0  0  0  0  0  0  0  0  0  0
  1  2  1  0
  1 10  1  0
  1 12  1  0
  1 14  1  1
  2  3  1  0
  2 15  1  1
  2 16  1  0
  3 11  1  0
  3 17  1  1
  3 18  1  0
  4  5  1  0
  4 11  1  0
  4 19  1  1
  4 20  1  0
  5  6  1  0
  5  8  2  0
  6  7  2  0
  6 21  1  0
  7 13  1  0
  7 22  1  0
  8 13  1  0
  8 23  1  0
  9 10  1  0
  9 11  1  0
  9 24  1  6
  9 25  1  0
 10 26  1  1
 10 27  1  0
 11 28  1  6
 12 29  1  0
M  CHG  1  11   1
M  END
$$$$
