LIG(A-306)
     RDKit          3D

 43 46  0  0  1  0  0  0  0  0999 V2000
    9.7113    1.0210   21.1673 O   0  0  0  0  0  0  0  0  0  0  0  0
    9.1515    0.1319   21.7883 C   0  0  0  0  0  0  0  0  0  0  0  0
    9.8636   -0.5570   22.9762 C   0  0  1  0  0  0  0  0  0  0  0  0
   11.3576   -0.2129   22.9321 C   0  0  0  0  0  0  0  0  0  0  0  0
   12.1716   -0.8887   22.0220 C   0  0  0  0  0  0  0  0  0  0  0  0
   13.4965   -0.5196   21.8779 C   0  0  0  0  0  0  0  0  0  0  0  0
   14.4846   -1.3754   20.7268 Cl  0  0  0  0  0  0  0  0  0  0  0  0
   14.0565    0.5045   22.6160 C   0  0  0  0  0  0  0  0  0  0  0  0
   13.2785    1.1673   23.5460 C   0  0  0  0  0  0  0  0  0  0  0  0
   11.9485    0.8052   23.7051 C   0  0  0  0  0  0  0  0  0  0  0  0
   11.0145    1.6600   24.9192 S   0  0  2  0  0  0  0  0  0  0  0  0
   11.2423    3.0660   24.7843 O   0  0  0  0  0  0  0  0  0  0  0  0
   11.2226    1.0440   26.1942 O   0  0  0  0  0  0  0  0  0  0  0  0
    9.4835    1.3478   24.4573 N   0  0  0  0  0  0  0  0  0  0  0  0
    9.2047   -0.0862   24.2942 C   0  0  2  0  0  0  0  0  0  0  0  0
    9.6958   -2.0831   22.8391 C   0  0  1  0  0  0  0  0  0  0  0  0
    7.9185   -0.3352   21.4663 N   0  0  0  0  0  0  0  0  0  0  0  0
    7.1294    0.0328   20.3494 C   0  0  0  0  0  0  0  0  0  0  0  0
    5.9263    0.7786   20.5635 C   0  0  0  0  0  0  0  0  0  0  0  0
    5.4154    1.1015   21.8476 C   0  0  0  0  0  0  0  0  0  0  0  0
    4.2553    1.8123   21.9857 C   0  0  0  0  0  0  0  0  0  0  0  0
    3.5561    2.2513   20.8647 C   0  0  0  0  0  0  0  0  0  0  0  0
    4.0111    1.9724   19.6067 C   0  0  0  0  0  0  0  0  0  0  0  0
    5.1972    1.2196   19.4206 C   0  0  0  0  0  0  0  0  0  0  0  0
    5.7061    0.8777   18.1415 C   0  0  0  0  0  0  0  0  0  0  0  0
    6.8182    0.1798   17.9434 N   0  0  0  0  0  0  0  0  0  0  0  0
    7.4983   -0.2271   19.0284 C   0  0  0  0  0  0  0  0  0  0  0  0
   11.7679   -1.6980   21.4317 H   0  0  0  0  0  0  0  0  0  0  0  0
   15.0892    0.7838   22.4682 H   0  0  0  0  0  0  0  0  0  0  0  0
   13.7021    1.9607   24.1440 H   0  0  0  0  0  0  0  0  0  0  0  0
    9.0313    1.9934   23.8418 H   0  0  0  0  0  0  0  0  0  0  0  0
    9.6252   -0.6466   25.1423 H   0  0  0  0  0  0  0  0  0  0  0  0
    8.1182   -0.2518   24.2479 H   0  0  0  0  0  0  0  0  0  0  0  0
   10.1986   -2.5846   23.6791 H   0  0  0  0  0  0  0  0  0  0  0  0
    8.6254   -2.3364   22.8486 H   0  0  0  0  0  0  0  0  0  0  0  0
   10.1434   -2.4174   21.8916 H   0  0  0  0  0  0  0  0  0  0  0  0
    7.5239   -1.0138   22.0859 H   0  0  0  0  0  0  0  0  0  0  0  0
    5.9507    0.7809   22.7290 H   0  0  0  0  0  0  0  0  0  0  0  0
    3.8782    2.0351   22.9729 H   0  0  0  0  0  0  0  0  0  0  0  0
    2.6453    2.8178   20.9906 H   0  0  0  0  0  0  0  0  0  0  0  0
    3.4623    2.3286   18.7474 H   0  0  0  0  0  0  0  0  0  0  0  0
    5.1538    1.2060   17.2734 H   0  0  0  0  0  0  0  0  0  0  0  0
    8.3998   -0.7993   18.8660 H   0  0  0  0  0  0  0  0  0  0  0  0
  1  2  2  0
  3  2  1  6
  2 17  1  0
  3  4  1  0
  3 15  1  0
  3 16  1  0
  4  5  2  0
  4 10  1  0
  5  6  1  0
  5 28  1  0
  6  7  1  0
  6  8  2  0
  8  9  1  0
  8 29  1  0
  9 10  2  0
  9 30  1  0
 10 11  1  0
 11 12  2  0
 11 13  2  0
 11 14  1  6
 14 15  1  0
 14 31  1  0
 15 32  1  1
 15 33  1  0
 16 34  1  1
 16 35  1  0
 16 36  1  0
 17 18  1  0
 17 37  1  0
 18 19  2  0
 18 27  1  0
 19 20  1  0
 19 24  1  0
 20 21  2  0
 20 38  1  0
 21 22  1  0
 21 39  1  0
 22 23  2  0
 22 40  1  0
 23 24  1  0
 23 41  1  0
 24 25  2  0
 25 26  1  0
 25 42  1  0
 26 27  2  0
 27 43  1  0
M  END
$$$$
