LIG(A-306)
     RDKit          3D

 55 58  0  0  1  0  0  0  0  0999 V2000
   10.3849    2.2931   25.2316 O   0  0  0  0  0  0  0  0  0  0  0  0
   10.0581    1.3091   24.5935 C   0  0  0  0  0  0  0  0  0  0  0  0
    8.7582    0.8637   24.5637 N   0  0  0  0  0  0  0  0  0  0  0  0
    7.7752    1.4654   25.4498 C   0  0  1  0  0  0  0  0  0  0  0  0
    6.9878    2.6542   24.9220 C   0  0  0  0  0  0  0  0  0  0  0  0
    6.4667    3.4620   25.6921 O   0  0  0  0  0  0  0  0  0  0  0  0
    6.8526    2.7162   23.5880 N   0  0  0  0  0  0  0  0  0  0  0  0
    7.2012    3.8964   22.7831 C   0  0  2  0  0  0  0  0  0  0  0  0
    8.5291    4.5007   23.2069 C   0  0  1  0  0  0  0  0  0  0  0  0
    6.0779    4.9121   22.7983 C   0  0  1  0  0  0  0  0  0  0  0  0
   11.0332    0.5714   23.7694 C   0  0  0  0  0  0  0  0  0  0  0  0
   12.3781    0.9488   23.8002 C   0  0  0  0  0  0  0  0  0  0  0  0
   13.3172    0.2501   23.0640 C   0  0  0  0  0  0  0  0  0  0  0  0
   12.9114   -0.8360   22.3170 C   0  0  0  0  0  0  0  0  0  0  0  0
   14.0996   -1.7536   21.4308 Cl  0  0  0  0  0  0  0  0  0  0  0  0
   11.5835   -1.2164   22.2532 C   0  0  0  0  0  0  0  0  0  0  0  0
   10.6234   -0.4927   22.9573 C   0  0  0  0  0  0  0  0  0  0  0  0
    9.1535   -0.8211   22.8035 C   0  0  1  0  0  0  0  0  0  0  0  0
    8.4096   -0.4804   24.0956 C   0  0  1  0  0  0  0  0  0  0  0  0
    8.5781   -0.0122   21.6386 C   0  0  0  0  0  0  0  0  0  0  0  0
    9.0288    1.0890   21.3176 O   0  0  0  0  0  0  0  0  0  0  0  0
    7.5152   -0.5824   21.0257 N   0  0  0  0  0  0  0  0  0  0  0  0
    6.7529   -0.0565   19.9589 C   0  0  0  0  0  0  0  0  0  0  0  0
    5.6077    0.7381   20.2761 C   0  0  0  0  0  0  0  0  0  0  0  0
    5.0949    0.8839   21.5881 C   0  0  0  0  0  0  0  0  0  0  0  0
    3.9977    1.6536   21.8323 C   0  0  0  0  0  0  0  0  0  0  0  0
    3.3894    2.3045   20.7874 C   0  0  0  0  0  0  0  0  0  0  0  0
    2.2982    3.0701   21.0596 F   0  0  0  0  0  0  0  0  0  0  0  0
    3.8122    2.2147   19.4994 C   0  0  0  0  0  0  0  0  0  0  0  0
    4.9374    1.4040   19.2112 C   0  0  0  0  0  0  0  0  0  0  0  0
    5.4263    1.1992   17.8971 C   0  0  0  0  0  0  0  0  0  0  0  0
    6.4675    0.4345   17.5979 N   0  0  0  0  0  0  0  0  0  0  0  0
    7.1058   -0.1674   18.6118 C   0  0  0  0  0  0  0  0  0  0  0  0
    7.0500    0.6827   25.7173 H   0  0  0  0  0  0  0  0  0  0  0  0
    8.3064    1.7975   26.3540 H   0  0  0  0  0  0  0  0  0  0  0  0
    6.4937    1.9125   23.1136 H   0  0  0  0  0  0  0  0  0  0  0  0
    7.3189    3.5633   21.7413 H   0  0  0  0  0  0  0  0  0  0  0  0
    8.7498    5.3778   22.5809 H   0  0  0  0  0  0  0  0  0  0  0  0
    8.4718    4.8082   24.2616 H   0  0  0  0  0  0  0  0  0  0  0  0
    9.3272    3.7536   23.0857 H   0  0  0  0  0  0  0  0  0  0  0  0
    6.3626    5.7835   22.1903 H   0  0  0  0  0  0  0  0  0  0  0  0
    5.1667    4.4572   22.3827 H   0  0  0  0  0  0  0  0  0  0  0  0
    5.8881    5.2333   23.8331 H   0  0  0  0  0  0  0  0  0  0  0  0
   12.6860    1.7908   24.4023 H   0  0  0  0  0  0  0  0  0  0  0  0
   14.3544    0.5507   23.0739 H   0  0  0  0  0  0  0  0  0  0  0  0
   11.2919   -2.0706   21.6601 H   0  0  0  0  0  0  0  0  0  0  0  0
    9.0384   -1.8942   22.5911 H   0  0  0  0  0  0  0  0  0  0  0  0
    8.6806   -1.2126   24.8704 H   0  0  0  0  0  0  0  0  0  0  0  0
    7.3263   -0.5268   23.9100 H   0  0  0  0  0  0  0  0  0  0  0  0
    7.2370   -1.4801   21.3675 H   0  0  0  0  0  0  0  0  0  0  0  0
    5.5814    0.3768   22.4082 H   0  0  0  0  0  0  0  0  0  0  0  0
    3.6109    1.7507   22.8360 H   0  0  0  0  0  0  0  0  0  0  0  0
    3.3016    2.7498   18.7124 H   0  0  0  0  0  0  0  0  0  0  0  0
    4.9176    1.6987   17.0859 H   0  0  0  0  0  0  0  0  0  0  0  0
    7.9577   -0.7849   18.3685 H   0  0  0  0  0  0  0  0  0  0  0  0
  1  2  2  0
  2  3  1  0
  2 11  1  0
  3  4  1  0
  3 19  1  0
  4  5  1  0
  4 34  1  1
  4 35  1  0
  5  6  2  0
  5  7  1  0
  7  8  1  0
  7 36  1  0
  8  9  1  0
  8 10  1  0
  8 37  1  6
  9 38  1  6
  9 39  1  0
  9 40  1  0
 10 41  1  6
 10 42  1  0
 10 43  1  0
 11 12  2  0
 11 17  1  0
 12 13  1  0
 12 44  1  0
 13 14  2  0
 13 45  1  0
 14 15  1  0
 14 16  1  0
 16 17  2  0
 16 46  1  0
 17 18  1  0
 18 19  1  0
 18 20  1  0
 18 47  1  6
 19 48  1  1
 19 49  1  0
 20 21  2  0
 20 22  1  0
 22 23  1  0
 22 50  1  0
 23 24  2  0
 23 33  1  0
 24 25  1  0
 24 30  1  0
 25 26  2  0
 25 51  1  0
 26 27  1  0
 26 52  1  0
 27 28  1  0
 27 29  2  0
 29 30  1  0
 29 53  1  0
 30 31  2  0
 31 32  1  0
 31 54  1  0
 32 33  2  0
 33 55  1  0
M  END
$$$$
