LIG(A-306)
     RDKit          3D

 39 42  0  0  1  0  0  0  0  0999 V2000
  -14.3903   -2.5214  -21.1190 Cl  0  0  0  0  0  0  0  0  0  0  0  0
  -13.2327   -1.7307  -22.1369 C   0  0  0  0  0  0  0  0  0  0  0  0
  -13.6550   -0.8575  -23.1144 C   0  0  0  0  0  0  0  0  0  0  0  0
  -14.9828   -0.6867  -23.3142 F   0  0  0  0  0  0  0  0  0  0  0  0
  -11.8809   -1.9196  -21.9252 C   0  0  0  0  0  0  0  0  0  0  0  0
  -10.9412   -1.2222  -22.6831 C   0  0  0  0  0  0  0  0  0  0  0  0
  -11.4105   -0.3379  -23.6635 C   0  0  0  0  0  0  0  0  0  0  0  0
  -12.7653   -0.1480  -23.8822 C   0  0  0  0  0  0  0  0  0  0  0  0
   -9.4565   -1.4373  -22.4857 C   0  0  1  0  0  0  0  0  0  0  0  0
   -8.7133   -1.0668  -23.7754 C   0  0  1  0  0  0  0  0  0  0  0  0
   -9.1557    0.2988  -24.2423 C   0  0  1  0  0  0  0  0  0  0  0  0
  -10.5789    0.3700  -24.5012 O   0  0  0  0  0  0  0  0  0  0  0  0
   -8.9820   -0.5643  -21.3214 C   0  0  0  0  0  0  0  0  0  0  0  0
   -9.5412    0.4880  -21.0201 O   0  0  0  0  0  0  0  0  0  0  0  0
   -7.8913   -1.0370  -20.6823 N   0  0  0  0  0  0  0  0  0  0  0  0
   -7.1155   -0.3980  -19.6992 C   0  0  0  0  0  0  0  0  0  0  0  0
   -6.0610    0.4739  -20.1166 C   0  0  0  0  0  0  0  0  0  0  0  0
   -5.6763    0.6555  -21.4725 C   0  0  0  0  0  0  0  0  0  0  0  0
   -4.6528    1.4993  -21.8050 C   0  0  0  0  0  0  0  0  0  0  0  0
   -3.9639    2.2024  -20.8205 C   0  0  0  0  0  0  0  0  0  0  0  0
   -4.3005    2.0628  -19.5015 C   0  0  0  0  0  0  0  0  0  0  0  0
   -5.3501    1.1929  -19.1141 C   0  0  0  0  0  0  0  0  0  0  0  0
   -5.7258    0.9843  -17.7653 C   0  0  0  0  0  0  0  0  0  0  0  0
   -6.6982    0.1703  -17.3798 N   0  0  0  0  0  0  0  0  0  0  0  0
   -7.3630   -0.4980  -18.3312 C   0  0  0  0  0  0  0  0  0  0  0  0
  -11.5492   -2.6130  -21.1665 H   0  0  0  0  0  0  0  0  0  0  0  0
  -13.1128    0.5410  -24.6378 H   0  0  0  0  0  0  0  0  0  0  0  0
   -9.2664   -2.4945  -22.2484 H   0  0  0  0  0  0  0  0  0  0  0  0
   -7.6303   -1.0544  -23.5828 H   0  0  0  0  0  0  0  0  0  0  0  0
   -8.9388   -1.8103  -24.5540 H   0  0  0  0  0  0  0  0  0  0  0  0
   -8.9027    1.0350  -23.4650 H   0  0  0  0  0  0  0  0  0  0  0  0
   -8.6171    0.5448  -25.1694 H   0  0  0  0  0  0  0  0  0  0  0  0
   -7.5979   -1.9574  -20.9406 H   0  0  0  0  0  0  0  0  0  0  0  0
   -6.1994    0.1199  -22.2509 H   0  0  0  0  0  0  0  0  0  0  0  0
   -4.3760    1.6214  -22.8417 H   0  0  0  0  0  0  0  0  0  0  0  0
   -3.1570    2.8636  -21.1001 H   0  0  0  0  0  0  0  0  0  0  0  0
   -3.7619    2.6202  -18.7496 H   0  0  0  0  0  0  0  0  0  0  0  0
   -5.1853    1.5232  -17.0012 H   0  0  0  0  0  0  0  0  0  0  0  0
   -8.1508   -1.1652  -18.0142 H   0  0  0  0  0  0  0  0  0  0  0  0
  1  2  1  0
  2  3  2  0
  2  5  1  0
  3  4  1  0
  3  8  1  0
  5  6  2  0
  5 26  1  0
  6  7  1  0
  6  9  1  0
  7  8  2  0
  7 12  1  0
  8 27  1  0
  9 10  1  0
  9 13  1  0
  9 28  1  1
 10 11  1  0
 10 29  1  1
 10 30  1  0
 11 12  1  0
 11 31  1  1
 11 32  1  0
 13 14  2  0
 13 15  1  0
 15 16  1  0
 15 33  1  0
 16 17  2  0
 16 25  1  0
 17 18  1  0
 17 22  1  0
 18 19  2  0
 18 34  1  0
 19 20  1  0
 19 35  1  0
 20 21  2  0
 20 36  1  0
 21 22  1  0
 21 37  1  0
 22 23  2  0
 23 24  1  0
 23 38  1  0
 24 25  2  0
 25 39  1  0
M  END
$$$$
