LIG(A-306)
     RDKit          3D

 56 60  0  0  1  0  0  0  0  0999 V2000
   -9.8404    0.8216  -21.0660 O   0  0  0  0  0  0  0  0  0  0  0  0
   -9.4112   -0.2765  -21.3942 C   0  0  0  0  0  0  0  0  0  0  0  0
   -8.4559   -0.8842  -20.6632 N   0  0  0  0  0  0  0  0  0  0  0  0
   -7.3962   -0.4420  -19.8546 C   0  0  0  0  0  0  0  0  0  0  0  0
   -6.4177    0.4978  -20.3263 C   0  0  0  0  0  0  0  0  0  0  0  0
   -6.1292    0.7154  -21.6992 C   0  0  0  0  0  0  0  0  0  0  0  0
   -5.0887    1.5154  -22.0832 C   0  0  0  0  0  0  0  0  0  0  0  0
   -4.2959    2.1506  -21.1365 C   0  0  0  0  0  0  0  0  0  0  0  0
   -4.5426    1.9889  -19.8037 C   0  0  0  0  0  0  0  0  0  0  0  0
   -5.5992    1.1524  -19.3625 C   0  0  0  0  0  0  0  0  0  0  0  0
   -5.8321    0.8667  -17.9994 C   0  0  0  0  0  0  0  0  0  0  0  0
   -6.7368    0.0094  -17.5623 N   0  0  0  0  0  0  0  0  0  0  0  0
   -7.4694   -0.6347  -18.4782 C   0  0  0  0  0  0  0  0  0  0  0  0
  -10.0300   -1.0515  -22.5842 C   0  0  2  0  0  0  0  0  0  0  0  0
   -9.3892   -0.4187  -23.8429 C   0  0  1  0  0  0  0  0  0  0  0  0
  -10.0015    0.9260  -24.1730 C   0  0  1  0  0  0  0  0  0  0  0  0
  -11.4178    0.8340  -24.4024 O   0  0  0  0  0  0  0  0  0  0  0  0
  -11.5429   -0.8140  -22.6081 C   0  0  0  0  0  0  0  0  0  0  0  0
  -12.1294    0.1309  -23.4597 C   0  0  0  0  0  0  0  0  0  0  0  0
  -13.4944    0.3671  -23.4530 C   0  0  0  0  0  0  0  0  0  0  0  0
  -14.3024   -0.3517  -22.5928 C   0  0  0  0  0  0  0  0  0  0  0  0
  -12.3767   -1.5503  -21.7689 C   0  0  0  0  0  0  0  0  0  0  0  0
  -13.7355   -1.2937  -21.7618 C   0  0  0  0  0  0  0  0  0  0  0  0
  -14.7365   -2.1002  -20.5821 Cl  0  0  0  0  0  0  0  0  0  0  0  0
   -9.7761   -2.5793  -22.5640 C   0  0  1  0  0  0  0  0  0  0  0  0
   -9.9506   -3.1951  -23.8667 N   0  0  0  0  0  0  0  0  0  0  0  0
   -9.0265   -3.9691  -24.4232 C   0  0  0  0  0  0  0  0  0  0  0  0
   -8.3951   -4.8257  -23.8056 O   0  0  0  0  0  0  0  0  0  0  0  0
   -8.7146   -3.6318  -25.8712 C   0  0  1  0  0  0  0  0  0  0  0  0
   -9.2275   -4.5903  -26.8427 N   0  0  0  0  0  0  0  0  0  0  0  0
  -10.2925   -5.4002  -26.7040 C   0  0  0  0  0  0  0  0  0  0  0  0
  -10.4631   -6.1809  -27.7492 N   0  0  0  0  0  0  0  0  0  0  0  0
   -9.4495   -5.8401  -28.6112 C   0  0  0  0  0  0  0  0  0  0  0  0
   -8.6843   -4.8659  -28.0751 C   0  0  0  0  0  0  0  0  0  0  0  0
   -8.5154   -1.8815  -20.7067 H   0  0  0  0  0  0  0  0  0  0  0  0
   -6.7413    0.2416  -22.4523 H   0  0  0  0  0  0  0  0  0  0  0  0
   -4.8814    1.6546  -23.1340 H   0  0  0  0  0  0  0  0  0  0  0  0
   -3.4773    2.7778  -21.4573 H   0  0  0  0  0  0  0  0  0  0  0  0
   -3.9279    2.5024  -19.0792 H   0  0  0  0  0  0  0  0  0  0  0  0
   -5.2309    1.3834  -17.2659 H   0  0  0  0  0  0  0  0  0  0  0  0
   -8.1778   -1.3665  -18.1188 H   0  0  0  0  0  0  0  0  0  0  0  0
   -8.3121   -0.2848  -23.6645 H   0  0  0  0  0  0  0  0  0  0  0  0
   -9.5379   -1.0964  -24.6966 H   0  0  0  0  0  0  0  0  0  0  0  0
   -9.8221    1.6131  -23.3330 H   0  0  0  0  0  0  0  0  0  0  0  0
   -9.5204    1.3217  -25.0796 H   0  0  0  0  0  0  0  0  0  0  0  0
  -13.9229    1.1061  -24.1138 H   0  0  0  0  0  0  0  0  0  0  0  0
  -15.3680   -0.1769  -22.5718 H   0  0  0  0  0  0  0  0  0  0  0  0
  -11.9647   -2.3160  -21.1285 H   0  0  0  0  0  0  0  0  0  0  0  0
   -8.7454   -2.7599  -22.2250 H   0  0  0  0  0  0  0  0  0  0  0  0
  -10.4809   -3.0435  -21.8585 H   0  0  0  0  0  0  0  0  0  0  0  0
  -10.8014   -3.0298  -24.3654 H   0  0  0  0  0  0  0  0  0  0  0  0
   -9.1524   -2.6481  -26.0961 H   0  0  0  0  0  0  0  0  0  0  0  0
   -7.6215   -3.5812  -25.9837 H   0  0  0  0  0  0  0  0  0  0  0  0
  -10.9336   -5.4086  -25.8349 H   0  0  0  0  0  0  0  0  0  0  0  0
   -9.2877   -6.2881  -29.5806 H   0  0  0  0  0  0  0  0  0  0  0  0
   -7.8205   -4.3978  -28.5235 H   0  0  0  0  0  0  0  0  0  0  0  0
  1  2  2  0
  2  3  1  0
 14  2  1  1
  3  4  1  0
  3 35  1  0
  4  5  2  0
  4 13  1  0
  5  6  1  0
  5 10  1  0
  6  7  2  0
  6 36  1  0
  7  8  1  0
  7 37  1  0
  8  9  2  0
  8 38  1  0
  9 10  1  0
  9 39  1  0
 10 11  2  0
 11 12  1  0
 11 40  1  0
 12 13  2  0
 13 41  1  0
 14 15  1  0
 14 18  1  0
 14 25  1  0
 15 16  1  0
 15 42  1  1
 15 43  1  0
 16 17  1  0
 16 44  1  1
 16 45  1  0
 17 19  1  0
 18 19  2  0
 18 22  1  0
 19 20  1  0
 20 21  2  0
 20 46  1  0
 21 23  1  0
 21 47  1  0
 22 23  2  0
 22 48  1  0
 23 24  1  0
 25 26  1  0
 25 49  1  1
 25 50  1  0
 26 27  1  0
 26 51  1  0
 27 28  2  0
 27 29  1  0
 29 30  1  0
 29 52  1  6
 29 53  1  0
 30 31  1  0
 30 34  1  0
 31 32  2  0
 31 54  1  0
 32 33  1  0
 33 34  2  0
 33 55  1  0
 34 56  1  0
M  END
$$$$
