LIG(A-305)
     RDKit          3D

 43 46  0  0  0  0  0  0  0  0999 V2000
    6.2850    1.0330   16.8369 O   0  0  0  0  0  0  0  0  0  0  0  0
    5.6452    0.8311   17.8780 C   0  0  0  0  0  0  0  0  0  0  0  0
    5.9642   -0.1949   18.8169 C   0  0  0  0  0  0  0  0  0  0  0  0
    4.5983    1.6493   18.2151 N   0  0  0  0  0  0  0  0  0  0  0  0
    3.8805    1.5604   19.4062 C   0  0  0  0  0  0  0  0  0  0  0  0
    4.2385    0.5854   20.3582 C   0  0  0  0  0  0  0  0  0  0  0  0
    3.5637    0.5455   21.5783 C   0  0  0  0  0  0  0  0  0  0  0  0
    2.5099    1.4127   21.8185 C   0  0  0  0  0  0  0  0  0  0  0  0
    2.1359    2.3387   20.8665 C   0  0  0  0  0  0  0  0  0  0  0  0
    2.8217    2.4296   19.6654 C   0  0  0  0  0  0  0  0  0  0  0  0
    5.3144   -0.3368   20.0101 C   0  0  0  0  0  0  0  0  0  0  0  0
    5.7224   -1.4398   20.9310 C   0  0  0  0  0  0  0  0  0  0  0  0
    5.1692   -2.5317   20.8451 O   0  0  0  0  0  0  0  0  0  0  0  0
    6.6605   -1.1799   21.8568 N   0  0  0  0  0  0  0  0  0  0  0  0
    7.2466   -2.1540   22.7848 C   0  0  1  0  0  0  0  0  0  0  0  0
    8.7535   -2.2562   22.5615 C   0  0  1  0  0  0  0  0  0  0  0  0
    7.2468    0.1500   21.9927 C   0  0  1  0  0  0  0  0  0  0  0  0
    8.7467    0.1528   21.8965 C   0  0  0  0  0  0  0  0  0  0  0  0
    9.3208    1.0837   21.3514 O   0  0  0  0  0  0  0  0  0  0  0  0
    9.3927   -0.9333   22.4094 N   0  0  0  0  0  0  0  0  0  0  0  0
   10.7717   -0.8655   22.7552 C   0  0  0  0  0  0  0  0  0  0  0  0
   11.7025   -1.5186   21.9510 C   0  0  0  0  0  0  0  0  0  0  0  0
   13.0446   -1.3618   22.2228 C   0  0  0  0  0  0  0  0  0  0  0  0
   14.2033   -2.0970   21.1576 Cl  0  0  0  0  0  0  0  0  0  0  0  0
   11.1970   -0.0975   23.8361 C   0  0  0  0  0  0  0  0  0  0  0  0
   12.5531    0.0293   24.0969 C   0  0  0  0  0  0  0  0  0  0  0  0
   13.4889   -0.6009   23.2877 C   0  0  0  0  0  0  0  0  0  0  0  0
    6.7542   -0.8899   18.5735 H   0  0  0  0  0  0  0  0  0  0  0  0
    4.3332    2.3592   17.5683 H   0  0  0  0  0  0  0  0  0  0  0  0
    3.8631   -0.1623   22.3371 H   0  0  0  0  0  0  0  0  0  0  0  0
    1.9779    1.3633   22.7570 H   0  0  0  0  0  0  0  0  0  0  0  0
    1.3023    2.9979   21.0587 H   0  0  0  0  0  0  0  0  0  0  0  0
    2.5370    3.1707   18.9332 H   0  0  0  0  0  0  0  0  0  0  0  0
    7.0537   -1.8320   23.8188 H   0  0  0  0  0  0  0  0  0  0  0  0
    6.7868   -3.1388   22.6156 H   0  0  0  0  0  0  0  0  0  0  0  0
    9.2042   -2.7688   23.4242 H   0  0  0  0  0  0  0  0  0  0  0  0
    8.9362   -2.8434   21.6495 H   0  0  0  0  0  0  0  0  0  0  0  0
    6.8448    0.7916   21.1948 H   0  0  0  0  0  0  0  0  0  0  0  0
    6.9593    0.5596   22.9724 H   0  0  0  0  0  0  0  0  0  0  0  0
   11.3780   -2.1379   21.1279 H   0  0  0  0  0  0  0  0  0  0  0  0
   10.4743    0.3969   24.4682 H   0  0  0  0  0  0  0  0  0  0  0  0
   12.8839    0.6231   24.9362 H   0  0  0  0  0  0  0  0  0  0  0  0
   14.5454   -0.4983   23.4868 H   0  0  0  0  0  0  0  0  0  0  0  0
  1  2  2  0
  2  3  1  0
  2  4  1  0
  3 11  2  0
  3 28  1  0
  4  5  1  0
  4 29  1  0
  5  6  2  0
  5 10  1  0
  6  7  1  0
  6 11  1  0
  7  8  2  0
  7 30  1  0
  8  9  1  0
  8 31  1  0
  9 10  2  0
  9 32  1  0
 10 33  1  0
 11 12  1  0
 12 13  2  0
 12 14  1  0
 14 15  1  0
 14 17  1  0
 15 16  1  0
 15 34  1  1
 15 35  1  0
 16 20  1  0
 16 36  1  1
 16 37  1  0
 17 18  1  0
 17 38  1  6
 17 39  1  0
 18 19  2  0
 18 20  1  0
 20 21  1  0
 21 22  2  0
 21 25  1  0
 22 23  1  0
 22 40  1  0
 23 24  1  0
 23 27  2  0
 25 26  2  0
 25 41  1  0
 26 27  1  0
 26 42  1  0
 27 43  1  0
M  END
$$$$
