LIG(A-305)
     RDKit          3D

 38 39  0  0  1  0  0  0  0  0999 V2000
   13.9820   -1.6250   21.0670 Cl  0  0  0  0  0  0  0  0  0  0  0  0
   12.9261   -0.6778   22.0800 C   0  0  0  0  0  0  0  0  0  0  0  0
   13.4732    0.2492   22.9419 C   0  0  0  0  0  0  0  0  0  0  0  0
   12.6294    0.9433   23.7939 C   0  0  0  0  0  0  0  0  0  0  0  0
   11.2623    0.7154   23.7621 C   0  0  0  0  0  0  0  0  0  0  0  0
   11.5641   -0.9047   22.0241 C   0  0  0  0  0  0  0  0  0  0  0  0
   10.7152   -0.1956   22.8682 C   0  0  0  0  0  0  0  0  0  0  0  0
    9.2082   -0.4135   22.7983 C   0  0  2  0  0  0  0  0  0  0  0  0
    8.8361   -1.8034   23.3544 C   0  0  1  0  0  0  0  0  0  0  0  0
    8.6781    0.1384   21.4643 C   0  0  0  0  0  0  0  0  0  0  0  0
    9.1322    1.1664   20.9752 O   0  0  0  0  0  0  0  0  0  0  0  0
    7.6240   -0.5275   20.9154 N   0  0  0  0  0  0  0  0  0  0  0  0
    6.8600   -0.0585   19.8244 C   0  0  0  0  0  0  0  0  0  0  0  0
    5.6531    0.6156   20.0614 C   0  0  0  0  0  0  0  0  0  0  0  0
    5.1852    0.7287   21.3915 N   0  0  0  0  0  0  0  0  0  0  0  0
    3.9872    1.1728   21.8475 C   0  0  0  0  0  0  0  0  0  0  0  0
    3.8293    1.1389   23.3385 C   0  0  1  0  0  0  0  0  0  0  0  0
    3.0852    1.5618   21.1055 O   0  0  0  0  0  0  0  0  0  0  0  0
    4.9710    1.1775   18.9854 C   0  0  0  0  0  0  0  0  0  0  0  0
    5.5269    1.0444   17.7294 C   0  0  0  0  0  0  0  0  0  0  0  0
    6.6769    0.4043   17.4794 N   0  0  0  0  0  0  0  0  0  0  0  0
    7.3189   -0.1427   18.5144 C   0  0  0  0  0  0  0  0  0  0  0  0
   14.5379    0.4305   22.9527 H   0  0  0  0  0  0  0  0  0  0  0  0
   13.0383    1.6648   24.4858 H   0  0  0  0  0  0  0  0  0  0  0  0
   10.6155    1.2524   24.4401 H   0  0  0  0  0  0  0  0  0  0  0  0
   11.1614   -1.6276   21.3301 H   0  0  0  0  0  0  0  0  0  0  0  0
    8.8058    0.2836   23.5480 H   0  0  0  0  0  0  0  0  0  0  0  0
    7.7465   -1.9427   23.2960 H   0  0  0  0  0  0  0  0  0  0  0  0
    9.3374   -2.5820   22.7606 H   0  0  0  0  0  0  0  0  0  0  0  0
    9.1594   -1.8771   24.4033 H   0  0  0  0  0  0  0  0  0  0  0  0
    7.3738   -1.4104   21.3130 H   0  0  0  0  0  0  0  0  0  0  0  0
    5.8310    0.4394   22.0979 H   0  0  0  0  0  0  0  0  0  0  0  0
    2.8272    1.5022   23.6100 H   0  0  0  0  0  0  0  0  0  0  0  0
    3.9546    0.1066   23.6970 H   0  0  0  0  0  0  0  0  0  0  0  0
    4.5908    1.7831   23.8025 H   0  0  0  0  0  0  0  0  0  0  0  0
    4.0372    1.7007   19.1292 H   0  0  0  0  0  0  0  0  0  0  0  0
    5.0014    1.4843   16.8947 H   0  0  0  0  0  0  0  0  0  0  0  0
    8.2388   -0.6761   18.3252 H   0  0  0  0  0  0  0  0  0  0  0  0
  1  2  1  0
  2  3  2  0
  2  6  1  0
  3  4  1  0
  3 23  1  0
  4  5  2  0
  4 24  1  0
  5  7  1  0
  5 25  1  0
  6  7  2  0
  6 26  1  0
  7  8  1  0
  8  9  1  0
  8 10  1  0
  8 27  1  1
  9 28  1  1
  9 29  1  0
  9 30  1  0
 10 11  2  0
 10 12  1  0
 12 13  1  0
 12 31  1  0
 13 14  2  0
 13 22  1  0
 14 15  1  0
 14 19  1  0
 15 16  1  0
 15 32  1  0
 16 17  1  0
 16 18  2  0
 17 33  1  6
 17 34  1  0
 17 35  1  0
 19 20  2  0
 19 36  1  0
 20 21  1  0
 20 37  1  0
 21 22  2  0
 22 38  1  0
M  END
$$$$
