LIG(A-305)
     RDKit          3D

 40 41  0  0  0  0  0  0  0  0999 V2000
    9.3313    0.5590   21.0962 O   0  0  0  0  0  0  0  0  0  0  0  0
    8.4143    0.1151   21.7793 C   0  0  0  0  0  0  0  0  0  0  0  0
    7.1213    0.1251   21.3944 N   0  0  0  0  0  0  0  0  0  0  0  0
    6.5572    0.2530   20.1014 C   0  0  0  0  0  0  0  0  0  0  0  0
    7.2831    0.0030   18.9364 C   0  0  0  0  0  0  0  0  0  0  0  0
    6.8900    0.3849   17.7164 N   0  0  0  0  0  0  0  0  0  0  0  0
    5.7300    1.0410   17.6265 C   0  0  0  0  0  0  0  0  0  0  0  0
    4.9271    1.3200   18.7115 C   0  0  0  0  0  0  0  0  0  0  0  0
    5.3222    0.9161   19.9845 C   0  0  0  0  0  0  0  0  0  0  0  0
    4.4663    1.2262   21.1845 C   0  0  1  0  0  0  0  0  0  0  0  0
    8.6394   -0.4019   23.1853 C   0  0  1  0  0  0  0  0  0  0  0  0
    9.7384   -1.4869   23.3253 C   0  0  2  0  0  0  0  0  0  0  0  0
    9.4703   -2.5730   22.2713 C   0  0  1  0  0  0  0  0  0  0  0  0
    9.6035   -2.1448   24.7033 C   0  0  1  0  0  0  0  0  0  0  0  0
   11.1244   -0.8450   23.1811 C   0  0  0  0  0  0  0  0  0  0  0  0
   11.4695    0.2620   23.9530 C   0  0  0  0  0  0  0  0  0  0  0  0
   12.6965    0.8860   23.7879 C   0  0  0  0  0  0  0  0  0  0  0  0
   13.6014    0.4049   22.8639 C   0  0  0  0  0  0  0  0  0  0  0  0
   13.2843   -0.7021   22.1079 C   0  0  0  0  0  0  0  0  0  0  0  0
   12.0543   -1.3221   22.2591 C   0  0  0  0  0  0  0  0  0  0  0  0
    6.4586    0.0271   22.1369 H   0  0  0  0  0  0  0  0  0  0  0  0
    8.2179   -0.5307   19.0250 H   0  0  0  0  0  0  0  0  0  0  0  0
    5.4037    1.3704   16.6511 H   0  0  0  0  0  0  0  0  0  0  0  0
    3.9958    1.8496   18.5752 H   0  0  0  0  0  0  0  0  0  0  0  0
    5.0261    1.8709   21.8781 H   0  0  0  0  0  0  0  0  0  0  0  0
    3.5525    1.7447   20.8589 H   0  0  0  0  0  0  0  0  0  0  0  0
    4.1949    0.2893   21.6932 H   0  0  0  0  0  0  0  0  0  0  0  0
    8.9216    0.4512   23.8197 H   0  0  0  0  0  0  0  0  0  0  0  0
    7.6921   -0.8293   23.5458 H   0  0  0  0  0  0  0  0  0  0  0  0
   10.2376   -3.3573   22.3489 H   0  0  0  0  0  0  0  0  0  0  0  0
    8.4772   -3.0135   22.4435 H   0  0  0  0  0  0  0  0  0  0  0  0
    9.5038   -2.1254   21.2671 H   0  0  0  0  0  0  0  0  0  0  0  0
   10.3772   -2.9182   24.8183 H   0  0  0  0  0  0  0  0  0  0  0  0
    9.7274   -1.3829   25.4870 H   0  0  0  0  0  0  0  0  0  0  0  0
    8.6087   -2.6054   24.7937 H   0  0  0  0  0  0  0  0  0  0  0  0
   10.7736    0.6384   24.6882 H   0  0  0  0  0  0  0  0  0  0  0  0
   12.9449    1.7514   24.3844 H   0  0  0  0  0  0  0  0  0  0  0  0
   14.5551    0.8947   22.7338 H   0  0  0  0  0  0  0  0  0  0  0  0
   13.9973   -1.0885   21.3946 H   0  0  0  0  0  0  0  0  0  0  0  0
   11.8135   -2.1847   21.6555 H   0  0  0  0  0  0  0  0  0  0  0  0
  1  2  2  0
  2  3  1  0
  2 11  1  0
  3  4  1  0
  3 21  1  0
  4  5  2  0
  4  9  1  0
  5  6  1  0
  5 22  1  0
  6  7  2  0
  7  8  1  0
  7 23  1  0
  8  9  2  0
  8 24  1  0
  9 10  1  0
 10 25  1  1
 10 26  1  0
 10 27  1  0
 11 12  1  0
 11 28  1  1
 11 29  1  0
 12 13  1  0
 12 14  1  0
 12 15  1  6
 13 30  1  6
 13 31  1  0
 13 32  1  0
 14 33  1  1
 14 34  1  0
 14 35  1  0
 15 16  2  0
 15 20  1  0
 16 17  1  0
 16 36  1  0
 17 18  2  0
 17 37  1  0
 18 19  1  0
 18 38  1  0
 19 20  2  0
 19 39  1  0
 20 40  1  0
M  END
$$$$
