LIG(A-306)
     RDKit          3D

 56 60  0  0  1  0  0  0  0  0999 V2000
   14.0808   -1.5471   21.2636 Cl  0  0  0  0  0  0  0  0  0  0  0  0
   12.9417   -0.8305   22.3669 C   0  0  0  0  0  0  0  0  0  0  0  0
   11.6103   -1.1850   22.2821 C   0  0  0  0  0  0  0  0  0  0  0  0
   13.3785    0.1121   23.2675 C   0  0  0  0  0  0  0  0  0  0  0  0
   12.4604    0.7105   24.1081 C   0  0  0  0  0  0  0  0  0  0  0  0
   11.1026    0.4039   24.0334 C   0  0  0  0  0  0  0  0  0  0  0  0
   10.1528    1.1612   24.9421 C   0  0  1  0  0  0  0  0  0  0  0  0
    8.7396    0.8224   24.7259 N   0  0  0  0  0  0  0  0  0  0  0  0
    7.4725    1.7201   25.1128 S   0  0  2  0  0  0  0  0  0  0  0  0
    7.6455    2.1581   26.4533 O   0  0  0  0  0  0  0  0  0  0  0  0
    6.3081    0.9988   24.7276 O   0  0  0  0  0  0  0  0  0  0  0  0
    7.6143    3.0069   24.1797 N   0  0  0  0  0  0  0  0  0  0  0  0
    7.8377    4.4488   24.4670 C   0  0  1  0  0  0  0  0  0  0  0  0
    7.5285    3.2698   22.7166 C   0  0  1  0  0  0  0  0  0  0  0  0
    7.2590    4.7381   23.0731 C   0  0  1  0  0  0  0  0  0  0  0  0
    5.8409    4.8914   23.0641 O   0  0  0  0  0  0  0  0  0  0  0  0
    5.3215    5.2993   21.8121 C   0  0  1  0  0  0  0  0  0  0  0  0
   10.6722   -0.5471   23.0949 C   0  0  0  0  0  0  0  0  0  0  0  0
    9.1934   -0.8331   22.9327 C   0  0  1  0  0  0  0  0  0  0  0  0
    8.4582   -0.5389   24.2360 C   0  0  2  0  0  0  0  0  0  0  0  0
    8.6516   -0.0468   21.7360 C   0  0  0  0  0  0  0  0  0  0  0  0
    9.2686    0.8965   21.2395 O   0  0  0  0  0  0  0  0  0  0  0  0
    7.4692   -0.5004   21.2490 N   0  0  0  0  0  0  0  0  0  0  0  0
    6.7450   -0.0380   20.1289 C   0  0  0  0  0  0  0  0  0  0  0  0
    5.5611    0.7354   20.3410 C   0  0  0  0  0  0  0  0  0  0  0  0
    5.0105    1.0010   21.6199 C   0  0  0  0  0  0  0  0  0  0  0  0
    3.8984    1.7807   21.7600 C   0  0  0  0  0  0  0  0  0  0  0  0
    3.2769    2.3333   20.6473 C   0  0  0  0  0  0  0  0  0  0  0  0
    3.7543    2.0896   19.3919 C   0  0  0  0  0  0  0  0  0  0  0  0
    4.9029    1.2808   19.2014 C   0  0  0  0  0  0  0  0  0  0  0  0
    5.4406    0.9895   17.9249 C   0  0  0  0  0  0  0  0  0  0  0  0
    6.5238    0.2504   17.7251 N   0  0  0  0  0  0  0  0  0  0  0  0
    7.1490   -0.2355   18.8065 C   0  0  0  0  0  0  0  0  0  0  0  0
   11.2961   -1.9523   21.5900 H   0  0  0  0  0  0  0  0  0  0  0  0
   14.4234    0.3805   23.3169 H   0  0  0  0  0  0  0  0  0  0  0  0
   12.8012    1.4302   24.8377 H   0  0  0  0  0  0  0  0  0  0  0  0
   10.4106    0.9294   25.9861 H   0  0  0  0  0  0  0  0  0  0  0  0
   10.2839    2.2385   24.7626 H   0  0  0  0  0  0  0  0  0  0  0  0
    7.2450    4.8485   25.3032 H   0  0  0  0  0  0  0  0  0  0  0  0
    8.8922    4.7344   24.5957 H   0  0  0  0  0  0  0  0  0  0  0  0
    8.4624    3.0950   22.1623 H   0  0  0  0  0  0  0  0  0  0  0  0
    6.6980    2.7606   22.2057 H   0  0  0  0  0  0  0  0  0  0  0  0
    7.8354    5.4648   22.4818 H   0  0  0  0  0  0  0  0  0  0  0  0
    4.2279    5.3959   21.8820 H   0  0  0  0  0  0  0  0  0  0  0  0
    5.7580    6.2696   21.5328 H   0  0  0  0  0  0  0  0  0  0  0  0
    5.5752    4.5496   21.0483 H   0  0  0  0  0  0  0  0  0  0  0  0
    9.0761   -1.9044   22.7127 H   0  0  0  0  0  0  0  0  0  0  0  0
    7.3763   -0.6397   24.0654 H   0  0  0  0  0  0  0  0  0  0  0  0
    8.7786   -1.2650   24.9977 H   0  0  0  0  0  0  0  0  0  0  0  0
    7.0569   -1.2620   21.7490 H   0  0  0  0  0  0  0  0  0  0  0  0
    5.4783    0.5800   22.4976 H   0  0  0  0  0  0  0  0  0  0  0  0
    3.4982    1.9695   22.7451 H   0  0  0  0  0  0  0  0  0  0  0  0
    2.4080    2.9616   20.7767 H   0  0  0  0  0  0  0  0  0  0  0  0
    3.2525    2.5168   18.5363 H   0  0  0  0  0  0  0  0  0  0  0  0
    4.9375    1.3945   17.0594 H   0  0  0  0  0  0  0  0  0  0  0  0
    8.0372   -0.8276   18.6421 H   0  0  0  0  0  0  0  0  0  0  0  0
  1  2  1  0
  2  3  2  0
  2  4  1  0
  3 18  1  0
  3 34  1  0
  4  5  2  0
  4 35  1  0
  5  6  1  0
  5 36  1  0
  6  7  1  0
  6 18  2  0
  7  8  1  0
  7 37  1  1
  7 38  1  0
  9  8  1  6
  8 20  1  0
  9 10  2  0
  9 11  2  0
  9 12  1  0
 12 13  1  0
 12 14  1  0
 13 15  1  0
 13 39  1  1
 13 40  1  0
 14 15  1  0
 14 41  1  6
 14 42  1  0
 15 16  1  0
 15 43  1  6
 16 17  1  0
 17 44  1  1
 17 45  1  0
 17 46  1  0
 18 19  1  0
 19 20  1  0
 19 21  1  0
 19 47  1  6
 20 48  1  6
 20 49  1  0
 21 22  2  0
 21 23  1  0
 23 24  1  0
 23 50  1  0
 24 25  2  0
 24 33  1  0
 25 26  1  0
 25 30  1  0
 26 27  2  0
 26 51  1  0
 27 28  1  0
 27 52  1  0
 28 29  2  0
 28 53  1  0
 29 30  1  0
 29 54  1  0
 30 31  2  0
 31 32  1  0
 31 55  1  0
 32 33  2  0
 33 56  1  0
M  END
$$$$
