LIG(A-305)
     RDKit          3D

 38 40  0  0  1  0  0  0  0  0999 V2000
   14.1632   -1.5708   21.0791 Cl  0  0  0  0  0  0  0  0  0  0  0  0
   12.8982   -0.9148   22.0761 C   0  0  0  0  0  0  0  0  0  0  0  0
   13.2002    0.0803   22.9840 C   0  0  0  0  0  0  0  0  0  0  0  0
   12.1863    0.5754   23.7870 C   0  0  0  0  0  0  0  0  0  0  0  0
   10.8923    0.0934   23.6591 C   0  0  0  0  0  0  0  0  0  0  0  0
   11.6152   -1.4038   21.9352 C   0  0  0  0  0  0  0  0  0  0  0  0
   10.5892   -0.8807   22.7141 C   0  0  0  0  0  0  0  0  0  0  0  0
    9.1442   -1.2917   22.4552 C   0  0  1  0  0  0  0  0  0  0  0  0
    8.3583   -1.4446   23.7622 C   0  0  1  0  0  0  0  0  0  0  0  0
    8.5442   -0.2768   21.4761 C   0  0  0  0  0  0  0  0  0  0  0  0
    9.1212    0.7742   21.2020 O   0  0  0  0  0  0  0  0  0  0  0  0
    7.3602   -0.6408   20.9152 N   0  0  0  0  0  0  0  0  0  0  0  0
    6.6532    0.0651   19.9131 C   0  0  0  0  0  0  0  0  0  0  0  0
    5.5312    0.8531   20.2211 C   0  0  0  0  0  0  0  0  0  0  0  0
    4.8552    1.5000   19.1960 C   0  0  0  0  0  0  0  0  0  0  0  0
    5.3362    1.3419   17.9090 C   0  0  0  0  0  0  0  0  0  0  0  0
    6.4082    0.6079   17.5911 N   0  0  0  0  0  0  0  0  0  0  0  0
    7.0492   -0.0170   18.5821 C   0  0  0  0  0  0  0  0  0  0  0  0
    5.0682    1.0372   21.5621 N   0  0  0  0  0  0  0  0  0  0  0  0
    3.7352    1.1662   21.8131 N   0  0  0  0  0  0  0  0  0  0  0  0
    3.6763    1.4283   23.1121 C   0  0  0  0  0  0  0  0  0  0  0  0
    4.9373    1.4634   23.7040 C   0  0  0  0  0  0  0  0  0  0  0  0
    5.8112    1.2033   22.6870 C   0  0  0  0  0  0  0  0  0  0  0  0
   14.2062    0.4647   23.0664 H   0  0  0  0  0  0  0  0  0  0  0  0
   12.4045    1.3410   24.5168 H   0  0  0  0  0  0  0  0  0  0  0  0
   10.1124    0.4782   24.2994 H   0  0  0  0  0  0  0  0  0  0  0  0
   11.4092   -2.1891   21.2230 H   0  0  0  0  0  0  0  0  0  0  0  0
    9.1572   -2.2717   21.9557 H   0  0  0  0  0  0  0  0  0  0  0  0
    7.3234   -1.7409   23.5358 H   0  0  0  0  0  0  0  0  0  0  0  0
    8.8322   -2.2162   24.3868 H   0  0  0  0  0  0  0  0  0  0  0  0
    8.3553   -0.4864   24.3023 H   0  0  0  0  0  0  0  0  0  0  0  0
    6.9486   -1.4912   21.2430 H   0  0  0  0  0  0  0  0  0  0  0  0
    3.9839    2.1058   19.3964 H   0  0  0  0  0  0  0  0  0  0  0  0
    4.8123    1.8437   17.1089 H   0  0  0  0  0  0  0  0  0  0  0  0
    7.9156   -0.6141   18.3388 H   0  0  0  0  0  0  0  0  0  0  0  0
    2.7550    1.5957   23.6502 H   0  0  0  0  0  0  0  0  0  0  0  0
    5.1723    1.6544   24.7407 H   0  0  0  0  0  0  0  0  0  0  0  0
    6.8868    1.1415   22.7628 H   0  0  0  0  0  0  0  0  0  0  0  0
  1  2  1  0
  2  3  2  0
  2  6  1  0
  3  4  1  0
  3 24  1  0
  4  5  2  0
  4 25  1  0
  5  7  1  0
  5 26  1  0
  6  7  2  0
  6 27  1  0
  7  8  1  0
  8  9  1  0
  8 10  1  0
  8 28  1  6
  9 29  1  6
  9 30  1  0
  9 31  1  0
 10 11  2  0
 10 12  1  0
 12 13  1  0
 12 32  1  0
 13 14  2  0
 13 18  1  0
 14 15  1  0
 14 19  1  0
 15 16  2  0
 15 33  1  0
 16 17  1  0
 16 34  1  0
 17 18  2  0
 18 35  1  0
 19 20  1  0
 19 23  1  0
 20 21  2  0
 21 22  1  0
 21 36  1  0
 22 23  2  0
 22 37  1  0
 23 38  1  0
M  END
$$$$
