LIG(A-306)
     RDKit          3D

 51 54  0  0  1  0  0  0  0  0999 V2000
   14.0326   -1.4418   21.4574 Cl  0  0  0  0  0  0  0  0  0  0  0  0
   12.7580   -0.7561   22.4330 C   0  0  0  0  0  0  0  0  0  0  0  0
   11.4609   -1.2015   22.2548 C   0  0  0  0  0  0  0  0  0  0  0  0
   13.0606    0.2442   23.3334 C   0  0  0  0  0  0  0  0  0  0  0  0
   12.0450    0.7940   24.0936 C   0  0  0  0  0  0  0  0  0  0  0  0
   10.7215    0.3770   23.9355 C   0  0  0  0  0  0  0  0  0  0  0  0
    9.6382    0.9923   24.7945 C   0  0  1  0  0  0  0  0  0  0  0  0
    8.2938    0.7780   24.2353 N   0  0  2  0  0  0  0  0  0  0  0  0
    7.2285    1.3294   25.0660 C   0  0  1  0  0  0  0  0  0  0  0  0
    6.7450    2.7075   24.6410 C   0  0  0  0  0  0  0  0  0  0  0  0
    5.9794    3.3367   25.3665 O   0  0  0  0  0  0  0  0  0  0  0  0
    7.1630    3.1734   23.4654 N   0  0  0  0  0  0  0  0  0  0  0  0
    6.6050    4.3675   22.8540 C   0  0  1  0  0  0  0  0  0  0  0  0
   10.4250   -0.6153   22.9819 C   0  0  0  0  0  0  0  0  0  0  0  0
    8.9760   -0.9543   22.6758 C   0  0  1  0  0  0  0  0  0  0  0  0
    8.0971   -0.6289   23.8836 C   0  0  2  0  0  0  0  0  0  0  0  0
    8.4780   -0.0657   21.5340 C   0  0  0  0  0  0  0  0  0  0  0  0
    8.7034    1.1471   21.5024 O   0  0  0  0  0  0  0  0  0  0  0  0
    7.7108   -0.7025   20.6178 N   0  0  0  0  0  0  0  0  0  0  0  0
    6.7274   -0.2190   19.7173 C   0  0  0  0  0  0  0  0  0  0  0  0
    5.7412    0.7461   20.1208 C   0  0  0  0  0  0  0  0  0  0  0  0
    5.3279    0.9303   21.4662 C   0  0  0  0  0  0  0  0  0  0  0  0
    4.2589    1.7252   21.7739 C   0  0  0  0  0  0  0  0  0  0  0  0
    3.5633    2.3953   20.7775 C   0  0  0  0  0  0  0  0  0  0  0  0
    3.9277    2.2670   19.4694 C   0  0  0  0  0  0  0  0  0  0  0  0
    5.0102    1.4261   19.1008 C   0  0  0  0  0  0  0  0  0  0  0  0
    5.3082    1.1136   17.7545 C   0  0  0  0  0  0  0  0  0  0  0  0
    6.2002    0.2111   17.3817 N   0  0  0  0  0  0  0  0  0  0  0  0
    6.8699   -0.4319   18.3462 C   0  0  0  0  0  0  0  0  0  0  0  0
   11.2514   -1.9985   21.5568 H   0  0  0  0  0  0  0  0  0  0  0  0
   14.0768    0.5930   23.4431 H   0  0  0  0  0  0  0  0  0  0  0  0
   12.2788    1.5577   24.8207 H   0  0  0  0  0  0  0  0  0  0  0  0
    9.6810    0.5398   25.7962 H   0  0  0  0  0  0  0  0  0  0  0  0
    9.8205    2.0743   24.8728 H   0  0  0  0  0  0  0  0  0  0  0  0
    8.2679    1.2863   23.3745 H   0  0  0  0  0  0  0  0  0  0  0  0
    6.3729    0.6391   25.0300 H   0  0  0  0  0  0  0  0  0  0  0  0
    7.6000    1.3993   26.0990 H   0  0  0  0  0  0  0  0  0  0  0  0
    7.8893    2.6821   22.9846 H   0  0  0  0  0  0  0  0  0  0  0  0
    7.1046    4.5553   21.8921 H   0  0  0  0  0  0  0  0  0  0  0  0
    5.5276    4.2238   22.6854 H   0  0  0  0  0  0  0  0  0  0  0  0
    6.7602    5.2278   23.5217 H   0  0  0  0  0  0  0  0  0  0  0  0
    8.8775   -2.0160   22.4053 H   0  0  0  0  0  0  0  0  0  0  0  0
    7.0407   -0.8044   23.6318 H   0  0  0  0  0  0  0  0  0  0  0  0
    8.3823   -1.2671   24.7329 H   0  0  0  0  0  0  0  0  0  0  0  0
    7.8651   -1.6892   20.5671 H   0  0  0  0  0  0  0  0  0  0  0  0
    5.8668    0.4342   22.2599 H   0  0  0  0  0  0  0  0  0  0  0  0
    3.9526    1.8329   22.8039 H   0  0  0  0  0  0  0  0  0  0  0  0
    2.7255    3.0243   21.0402 H   0  0  0  0  0  0  0  0  0  0  0  0
    3.3880    2.8099   18.7075 H   0  0  0  0  0  0  0  0  0  0  0  0
    4.7734    1.6456   16.9816 H   0  0  0  0  0  0  0  0  0  0  0  0
    7.5830   -1.1810   18.0353 H   0  0  0  0  0  0  0  0  0  0  0  0
  1  2  1  0
  2  3  2  0
  2  4  1  0
  3 14  1  0
  3 30  1  0
  4  5  2  0
  4 31  1  0
  5  6  1  0
  5 32  1  0
  6  7  1  0
  6 14  2  0
  7  8  1  0
  7 33  1  1
  7 34  1  0
  8  9  1  0
  8 16  1  0
  8 35  1  6
  9 10  1  0
  9 36  1  1
  9 37  1  0
 10 11  2  0
 10 12  1  0
 12 13  1  0
 12 38  1  0
 13 39  1  6
 13 40  1  0
 13 41  1  0
 14 15  1  0
 15 16  1  0
 15 17  1  0
 15 42  1  6
 16 43  1  6
 16 44  1  0
 17 18  2  0
 17 19  1  0
 19 20  1  0
 19 45  1  0
 20 21  2  0
 20 29  1  0
 21 22  1  0
 21 26  1  0
 22 23  2  0
 22 46  1  0
 23 24  1  0
 23 47  1  0
 24 25  2  0
 24 48  1  0
 25 26  1  0
 25 49  1  0
 26 27  2  0
 27 28  1  0
 27 50  1  0
 28 29  2  0
 29 51  1  0
M  CHG  1   8   1
M  END
$$$$
