LIG(A-305)
     RDKit          3D

 38 39  0  0  0  0  0  0  0  0999 V2000
    8.4225   -2.1860   23.1424 N   0  0  2  0  0  0  0  0  0  0  0  0
   11.2327    2.1710   24.6510 C   0  0  1  0  0  0  0  0  0  0  0  0
    5.7702   -4.1812   19.6657 O   0  0  0  0  0  0  0  0  0  0  0  0
   11.4646    0.7850   24.1210 C   0  0  0  0  0  0  0  0  0  0  0  0
    8.8044   -1.6501   21.8324 C   0  0  1  0  0  0  0  0  0  0  0  0
    6.4732   -3.1772   19.6936 C   0  0  0  0  0  0  0  0  0  0  0  0
    7.0921   -2.6633   18.4226 C   0  0  1  0  0  0  0  0  0  0  0  0
   10.4986   -0.1990   24.2611 C   0  0  0  0  0  0  0  0  0  0  0  0
   12.6436    0.4510   23.4709 C   0  0  0  0  0  0  0  0  0  0  0  0
   12.8495   -0.8211   22.9690 C   0  0  0  0  0  0  0  0  0  0  0  0
   11.8735   -1.7881   23.1221 C   0  0  0  0  0  0  0  0  0  0  0  0
   10.6956   -1.4920   23.7882 C   0  0  0  0  0  0  0  0  0  0  0  0
    9.6066   -2.5220   23.9373 C   0  0  1  0  0  0  0  0  0  0  0  0
    7.5615   -3.3600   22.9866 C   0  0  1  0  0  0  0  0  0  0  0  0
    6.3474   -3.0311   22.1506 C   0  0  1  0  0  0  0  0  0  0  0  0
    7.5893   -1.3331   20.9934 C   0  0  1  0  0  0  0  0  0  0  0  0
    6.7743   -2.5351   20.8456 N   0  0  0  0  0  0  0  0  0  0  0  0
    7.9069   -1.4818   23.6305 H   0  0  0  0  0  0  0  0  0  0  0  0
   11.0670    2.1258   25.7375 H   0  0  0  0  0  0  0  0  0  0  0  0
   12.1129    2.7962   24.4400 H   0  0  0  0  0  0  0  0  0  0  0  0
   10.3482    2.6067   24.1632 H   0  0  0  0  0  0  0  0  0  0  0  0
    9.3890   -0.7298   21.9784 H   0  0  0  0  0  0  0  0  0  0  0  0
    9.4188   -2.3951   21.3058 H   0  0  0  0  0  0  0  0  0  0  0  0
    6.8022   -3.3134   17.5840 H   0  0  0  0  0  0  0  0  0  0  0  0
    6.7394   -1.6391   18.2311 H   0  0  0  0  0  0  0  0  0  0  0  0
    8.1875   -2.6611   18.5230 H   0  0  0  0  0  0  0  0  0  0  0  0
    9.5676    0.0450   24.7510 H   0  0  0  0  0  0  0  0  0  0  0  0
   13.4147    1.1980   23.3546 H   0  0  0  0  0  0  0  0  0  0  0  0
   13.7711   -1.0586   22.4583 H   0  0  0  0  0  0  0  0  0  0  0  0
   12.0301   -2.7784   22.7208 H   0  0  0  0  0  0  0  0  0  0  0  0
    9.3177   -2.5828   24.9970 H   0  0  0  0  0  0  0  0  0  0  0  0
    9.9921   -3.4974   23.6058 H   0  0  0  0  0  0  0  0  0  0  0  0
    8.1313   -4.1617   22.4940 H   0  0  0  0  0  0  0  0  0  0  0  0
    7.2334   -3.7004   23.9798 H   0  0  0  0  0  0  0  0  0  0  0  0
    5.7379   -3.9370   22.0170 H   0  0  0  0  0  0  0  0  0  0  0  0
    5.7507   -2.2592   22.6587 H   0  0  0  0  0  0  0  0  0  0  0  0
    6.9981   -0.5473   21.4864 H   0  0  0  0  0  0  0  0  0  0  0  0
    7.9099   -0.9829   20.0012 H   0  0  0  0  0  0  0  0  0  0  0  0
  1  5  1  0
  1 13  1  0
  1 14  1  0
  1 18  1  1
  2  4  1  0
  2 19  1  1
  2 20  1  0
  2 21  1  0
  3  6  2  0
  4  8  2  0
  4  9  1  0
  5 16  1  0
  5 22  1  1
  5 23  1  0
  6  7  1  0
  6 17  1  0
  7 24  1  6
  7 25  1  0
  7 26  1  0
  8 12  1  0
  8 27  1  0
  9 10  2  0
  9 28  1  0
 10 11  1  0
 10 29  1  0
 11 12  2  0
 11 30  1  0
 12 13  1  0
 13 31  1  1
 13 32  1  0
 14 15  1  0
 14 33  1  6
 14 34  1  0
 15 17  1  0
 15 35  1  6
 15 36  1  0
 16 17  1  0
 16 37  1  1
 16 38  1  0
M  CHG  1   1   1
M  END
$$$$
