LIG(A-306)
     RDKit          3D

 39 42  0  0  1  0  0  0  0  0999 V2000
   14.1521   -1.5246   21.1969 Cl  0  0  0  0  0  0  0  0  0  0  0  0
   13.1354   -0.7022   22.3486 C   0  0  0  0  0  0  0  0  0  0  0  0
   13.7162    0.1387   23.2803 C   0  0  0  0  0  0  0  0  0  0  0  0
   12.8967    0.7914   24.1904 C   0  0  0  0  0  0  0  0  0  0  0  0
   11.5178    0.6233   24.1343 C   0  0  0  0  0  0  0  0  0  0  0  0
   11.7643   -0.8872   22.2850 C   0  0  0  0  0  0  0  0  0  0  0  0
   10.9386   -0.1984   23.1680 C   0  0  0  0  0  0  0  0  0  0  0  0
    9.4191   -0.2821   23.0033 C   0  0  1  0  0  0  0  0  0  0  0  0
    8.7245    0.3126   24.0962 O   0  0  0  0  0  0  0  0  0  0  0  0
    8.9329    0.4418   21.7338 C   0  0  0  0  0  0  0  0  0  0  0  0
    9.3896    1.4766   21.2847 O   0  0  0  0  0  0  0  0  0  0  0  0
    7.8571   -0.2362   21.2441 N   0  0  0  0  0  0  0  0  0  0  0  0
    7.6265   -1.5156   21.9371 C   0  0  1  0  0  0  0  0  0  0  0  0
    8.8965   -1.7116   22.7620 C   0  0  1  0  0  0  0  0  0  0  0  0
    6.9943    0.2289   20.1989 C   0  0  0  0  0  0  0  0  0  0  0  0
    5.8885    1.0829   20.5045 C   0  0  0  0  0  0  0  0  0  0  0  0
    5.5465    1.5038   21.8195 C   0  0  0  0  0  0  0  0  0  0  0  0
    4.4739    2.3229   22.0404 C   0  0  0  0  0  0  0  0  0  0  0  0
    3.6882    2.7647   20.9796 C   0  0  0  0  0  0  0  0  0  0  0  0
    3.9789    2.3937   19.6977 C   0  0  0  0  0  0  0  0  0  0  0  0
    5.0841    1.5475   19.4229 C   0  0  0  0  0  0  0  0  0  0  0  0
    5.4405    1.1423   18.1126 C   0  0  0  0  0  0  0  0  0  0  0  0
    6.4703    0.3539   17.8315 N   0  0  0  0  0  0  0  0  0  0  0  0
    7.2130   -0.0845   18.8618 C   0  0  0  0  0  0  0  0  0  0  0  0
   14.7861    0.2844   23.2994 H   0  0  0  0  0  0  0  0  0  0  0  0
   13.3312    1.4315   24.9439 H   0  0  0  0  0  0  0  0  0  0  0  0
   10.8882    1.1349   24.8472 H   0  0  0  0  0  0  0  0  0  0  0  0
   11.3394   -1.5609   21.5558 H   0  0  0  0  0  0  0  0  0  0  0  0
    8.4408    1.1863   23.8539 H   0  0  0  0  0  0  0  0  0  0  0  0
    6.7412   -1.4560   22.5873 H   0  0  0  0  0  0  0  0  0  0  0  0
    7.4967   -2.3354   21.2152 H   0  0  0  0  0  0  0  0  0  0  0  0
    9.6348   -2.3075   22.2051 H   0  0  0  0  0  0  0  0  0  0  0  0
    8.6683   -2.2092   23.7162 H   0  0  0  0  0  0  0  0  0  0  0  0
    6.1429    1.1714   22.6563 H   0  0  0  0  0  0  0  0  0  0  0  0
    4.2340    2.6299   23.0477 H   0  0  0  0  0  0  0  0  0  0  0  0
    2.8413    3.4066   21.1719 H   0  0  0  0  0  0  0  0  0  0  0  0
    3.3615    2.7478   18.8855 H   0  0  0  0  0  0  0  0  0  0  0  0
    4.8360    1.4975   17.2912 H   0  0  0  0  0  0  0  0  0  0  0  0
    8.0466   -0.7321   18.6333 H   0  0  0  0  0  0  0  0  0  0  0  0
  1  2  1  0
  2  3  2  0
  2  6  1  0
  3  4  1  0
  3 25  1  0
  4  5  2  0
  4 26  1  0
  5  7  1  0
  5 27  1  0
  6  7  2  0
  6 28  1  0
  7  8  1  0
  8  9  1  1
  8 10  1  0
  8 14  1  0
  9 29  1  0
 10 11  2  0
 10 12  1  0
 12 13  1  0
 12 15  1  0
 13 14  1  0
 13 30  1  1
 13 31  1  0
 14 32  1  6
 14 33  1  0
 15 16  2  0
 15 24  1  0
 16 17  1  0
 16 21  1  0
 17 18  2  0
 17 34  1  0
 18 19  1  0
 18 35  1  0
 19 20  2  0
 19 36  1  0
 20 21  1  0
 20 37  1  0
 21 22  2  0
 22 23  1  0
 22 38  1  0
 23 24  2  0
 24 39  1  0
M  END
$$$$
