LIG(A-306)
     RDKit          3D

 66 71  0  0  1  0  0  0  0  0999 V2000
   -9.8472    0.6881  -21.1002 O   0  0  0  0  0  0  0  0  0  0  0  0
   -9.3046   -0.2856  -21.6085 C   0  0  0  0  0  0  0  0  0  0  0  0
   -8.1198   -0.7687  -21.1470 N   0  0  0  0  0  0  0  0  0  0  0  0
   -7.3401   -0.2715  -20.0690 C   0  0  0  0  0  0  0  0  0  0  0  0
   -6.1688    0.5006  -20.3623 C   0  0  0  0  0  0  0  0  0  0  0  0
   -5.7319    0.8024  -21.6774 C   0  0  0  0  0  0  0  0  0  0  0  0
   -4.6358    1.5908  -21.8916 C   0  0  0  0  0  0  0  0  0  0  0  0
   -3.9266    2.1209  -20.8219 C   0  0  0  0  0  0  0  0  0  0  0  0
   -4.2959    1.8494  -19.5367 C   0  0  0  0  0  0  0  0  0  0  0  0
   -5.4202    1.0277  -19.2697 C   0  0  0  0  0  0  0  0  0  0  0  0
   -5.8643    0.7295  -17.9577 C   0  0  0  0  0  0  0  0  0  0  0  0
   -6.9408    0.0101  -17.6828 N   0  0  0  0  0  0  0  0  0  0  0  0
   -7.6513   -0.4594  -18.7187 C   0  0  0  0  0  0  0  0  0  0  0  0
   -9.9461   -0.9997  -22.8233 C   0  0  2  0  0  0  0  0  0  0  0  0
   -9.4309   -0.2611  -24.0837 C   0  0  1  0  0  0  0  0  0  0  0  0
  -10.0422    1.1185  -24.2185 C   0  0  1  0  0  0  0  0  0  0  0  0
  -11.4769    1.0608  -24.3428 O   0  0  0  0  0  0  0  0  0  0  0  0
  -11.4726   -0.7892  -22.7389 C   0  0  0  0  0  0  0  0  0  0  0  0
  -12.1211    0.2423  -23.4463 C   0  0  0  0  0  0  0  0  0  0  0  0
  -13.4827    0.4643  -23.3230 C   0  0  0  0  0  0  0  0  0  0  0  0
  -14.2299   -0.3445  -22.4872 C   0  0  0  0  0  0  0  0  0  0  0  0
  -12.2513   -1.6117  -21.9266 C   0  0  0  0  0  0  0  0  0  0  0  0
  -13.6078   -1.3675  -21.8038 C   0  0  0  0  0  0  0  0  0  0  0  0
  -14.5389   -2.3332  -20.6921 Cl  0  0  0  0  0  0  0  0  0  0  0  0
   -9.6580   -2.5239  -22.8561 C   0  0  1  0  0  0  0  0  0  0  0  0
   -8.5136   -2.9569  -23.7496 C   0  0  0  0  0  0  0  0  0  0  0  0
   -7.4444   -2.3590  -23.7522 O   0  0  0  0  0  0  0  0  0  0  0  0
   -8.6840   -4.0754  -24.4925 N   0  0  0  0  0  0  0  0  0  0  0  0
   -7.4831   -4.8131  -24.9196 C   0  0  2  0  0  0  0  0  0  0  0  0
   -7.6122   -5.3845  -26.3418 C   0  0  1  0  0  0  0  0  0  0  0  0
   -8.9608   -6.0611  -26.5673 C   0  0  1  0  0  0  0  0  0  0  0  0
  -10.1037   -5.1217  -26.2422 C   0  0  1  0  0  0  0  0  0  0  0  0
  -10.0060   -4.6355  -24.8113 C   0  0  1  0  0  0  0  0  0  0  0  0
   -6.9476   -5.7755  -23.8948 C   0  0  0  0  0  0  0  0  0  0  0  0
   -7.5342   -6.1299  -22.7120 C   0  0  0  0  0  0  0  0  0  0  0  0
   -6.6693   -6.9070  -22.0484 N   0  0  0  0  0  0  0  0  0  0  0  0
   -5.5244   -7.1021  -22.7401 N   0  0  0  0  0  0  0  0  0  0  0  0
   -5.7026   -6.4200  -23.8637 C   0  0  0  0  0  0  0  0  0  0  0  0
   -7.7545   -1.5686  -21.6231 H   0  0  0  0  0  0  0  0  0  0  0  0
   -6.2733    0.4034  -22.5224 H   0  0  0  0  0  0  0  0  0  0  0  0
   -4.3187    1.8032  -22.9019 H   0  0  0  0  0  0  0  0  0  0  0  0
   -3.0729    2.7554  -21.0093 H   0  0  0  0  0  0  0  0  0  0  0  0
   -3.7276    2.2632  -18.7168 H   0  0  0  0  0  0  0  0  0  0  0  0
   -5.2877    1.1137  -17.1292 H   0  0  0  0  0  0  0  0  0  0  0  0
   -8.5390   -1.0309  -18.4908 H   0  0  0  0  0  0  0  0  0  0  0  0
   -8.3376   -0.1607  -24.0152 H   0  0  0  0  0  0  0  0  0  0  0  0
   -9.6895   -0.8534  -24.9738 H   0  0  0  0  0  0  0  0  0  0  0  0
   -9.7860    1.7097  -23.3270 H   0  0  0  0  0  0  0  0  0  0  0  0
   -9.6271    1.6056  -25.1131 H   0  0  0  0  0  0  0  0  0  0  0  0
  -13.9566    1.2624  -23.8752 H   0  0  0  0  0  0  0  0  0  0  0  0
  -15.2903   -0.1766  -22.3707 H   0  0  0  0  0  0  0  0  0  0  0  0
  -11.7981   -2.4358  -21.3957 H   0  0  0  0  0  0  0  0  0  0  0  0
   -9.4266   -2.8463  -21.8302 H   0  0  0  0  0  0  0  0  0  0  0  0
  -10.5693   -3.0327  -23.2037 H   0  0  0  0  0  0  0  0  0  0  0  0
   -6.7005   -4.0453  -25.0095 H   0  0  0  0  0  0  0  0  0  0  0  0
   -7.5018   -4.5634  -27.0654 H   0  0  0  0  0  0  0  0  0  0  0  0
   -6.8134   -6.1237  -26.5010 H   0  0  0  0  0  0  0  0  0  0  0  0
   -9.0369   -6.3683  -27.6208 H   0  0  0  0  0  0  0  0  0  0  0  0
   -9.0302   -6.9484  -25.9208 H   0  0  0  0  0  0  0  0  0  0  0  0
  -10.0646   -4.2570  -26.9209 H   0  0  0  0  0  0  0  0  0  0  0  0
  -11.0574   -5.6523  -26.3789 H   0  0  0  0  0  0  0  0  0  0  0  0
  -10.2013   -5.4827  -24.1374 H   0  0  0  0  0  0  0  0  0  0  0  0
  -10.7662   -3.8568  -24.6512 H   0  0  0  0  0  0  0  0  0  0  0  0
   -8.5171   -5.8364  -22.3742 H   0  0  0  0  0  0  0  0  0  0  0  0
   -6.8487   -7.2971  -21.1439 H   0  0  0  0  0  0  0  0  0  0  0  0
   -4.9751   -6.3672  -24.6602 H   0  0  0  0  0  0  0  0  0  0  0  0
  1  2  2  0
  2  3  1  0
 14  2  1  1
  3  4  1  0
  3 39  1  0
  4  5  2  0
  4 13  1  0
  5  6  1  0
  5 10  1  0
  6  7  2  0
  6 40  1  0
  7  8  1  0
  7 41  1  0
  8  9  2  0
  8 42  1  0
  9 10  1  0
  9 43  1  0
 10 11  2  0
 11 12  1  0
 11 44  1  0
 12 13  2  0
 13 45  1  0
 14 15  1  0
 14 18  1  0
 14 25  1  0
 15 16  1  0
 15 46  1  1
 15 47  1  0
 16 17  1  0
 16 48  1  1
 16 49  1  0
 17 19  1  0
 18 19  2  0
 18 22  1  0
 19 20  1  0
 20 21  2  0
 20 50  1  0
 21 23  1  0
 21 51  1  0
 22 23  2  0
 22 52  1  0
 23 24  1  0
 25 26  1  0
 25 53  1  1
 25 54  1  0
 26 27  2  0
 26 28  1  0
 28 29  1  0
 28 33  1  0
 29 30  1  0
 29 34  1  0
 29 55  1  6
 30 31  1  0
 30 56  1  6
 30 57  1  0
 31 32  1  0
 31 58  1  6
 31 59  1  0
 32 33  1  0
 32 60  1  6
 32 61  1  0
 33 62  1  1
 33 63  1  0
 34 35  2  0
 34 38  1  0
 35 36  1  0
 35 64  1  0
 36 37  1  0
 36 65  1  0
 37 38  2  0
 38 66  1  0
M  END
$$$$
