LIG(A-306)
     RDKit          3D

 41 42  0  0  0  0  0  0  0  0999 V2000
   13.9999   -1.4671   21.4674 Cl  0  0  0  0  0  0  0  0  0  0  0  0
   12.6762   -0.8624   22.4290 C   0  0  0  0  0  0  0  0  0  0  0  0
   12.9307    0.0541   23.4256 C   0  0  0  0  0  0  0  0  0  0  0  0
   11.8663    0.5353   24.1719 C   0  0  0  0  0  0  0  0  0  0  0  0
   10.5724    0.1138   23.8966 C   0  0  0  0  0  0  0  0  0  0  0  0
   11.3953   -1.2979   22.1468 C   0  0  0  0  0  0  0  0  0  0  0  0
   10.3218   -0.7858   22.8719 C   0  0  0  0  0  0  0  0  0  0  0  0
    8.9048   -1.1481   22.4833 C   0  0  1  0  0  0  0  0  0  0  0  0
    8.3399   -0.2286   21.4196 C   0  0  0  0  0  0  0  0  0  0  0  0
    8.9758    0.7317   20.9860 O   0  0  0  0  0  0  0  0  0  0  0  0
    7.1008   -0.5547   20.9918 N   0  0  0  0  0  0  0  0  0  0  0  0
    6.4869   -0.0008   19.8438 C   0  0  0  0  0  0  0  0  0  0  0  0
    6.9476   -0.1531   18.5377 C   0  0  0  0  0  0  0  0  0  0  0  0
    6.3786    0.4253   17.4747 N   0  0  0  0  0  0  0  0  0  0  0  0
    5.2977    1.1828   17.6856 C   0  0  0  0  0  0  0  0  0  0  0  0
    4.7438    1.4146   18.9303 C   0  0  0  0  0  0  0  0  0  0  0  0
    5.3519    0.8174   20.0215 C   0  0  0  0  0  0  0  0  0  0  0  0
    4.8085    0.8235   21.3183 O   0  0  0  0  0  0  0  0  0  0  0  0
    4.8103    2.0507   22.1553 C   0  0  2  0  0  0  0  0  0  0  0  0
    6.1296    2.7832   22.0301 C   0  0  1  0  0  0  0  0  0  0  0  0
    4.6101    1.5371   23.5617 C   0  0  1  0  0  0  0  0  0  0  0  0
    3.6534    2.9319   21.7346 C   0  0  1  0  0  0  0  0  0  0  0  0
   13.9381    0.3905   23.6213 H   0  0  0  0  0  0  0  0  0  0  0  0
   12.0441    1.2404   24.9703 H   0  0  0  0  0  0  0  0  0  0  0  0
    9.7512    0.4914   24.4878 H   0  0  0  0  0  0  0  0  0  0  0  0
   11.2278   -2.0294   21.3701 H   0  0  0  0  0  0  0  0  0  0  0  0
    8.8974   -2.1786   22.0985 H   0  0  0  0  0  0  0  0  0  0  0  0
    8.2673   -1.0860   23.3775 H   0  0  0  0  0  0  0  0  0  0  0  0
    6.5853   -1.2298   21.5194 H   0  0  0  0  0  0  0  0  0  0  0  0
    7.8153   -0.7749   18.3742 H   0  0  0  0  0  0  0  0  0  0  0  0
    4.8275    1.6429   16.8291 H   0  0  0  0  0  0  0  0  0  0  0  0
    3.8697    2.0381   19.0475 H   0  0  0  0  0  0  0  0  0  0  0  0
    6.1088    3.6868   22.6569 H   0  0  0  0  0  0  0  0  0  0  0  0
    6.9468    2.1257   22.3617 H   0  0  0  0  0  0  0  0  0  0  0  0
    6.2921    3.0689   20.9803 H   0  0  0  0  0  0  0  0  0  0  0  0
    4.5973    2.3841   24.2636 H   0  0  0  0  0  0  0  0  0  0  0  0
    3.6540    0.9967   23.6220 H   0  0  0  0  0  0  0  0  0  0  0  0
    5.4333    0.8563   23.8239 H   0  0  0  0  0  0  0  0  0  0  0  0
    3.6449    3.8446   22.3484 H   0  0  0  0  0  0  0  0  0  0  0  0
    3.7663    3.2039   20.6747 H   0  0  0  0  0  0  0  0  0  0  0  0
    2.7080    2.3872   21.8745 H   0  0  0  0  0  0  0  0  0  0  0  0
  1  2  1  0
  2  3  2  0
  2  6  1  0
  3  4  1  0
  3 23  1  0
  4  5  2  0
  4 24  1  0
  5  7  1  0
  5 25  1  0
  6  7  2  0
  6 26  1  0
  7  8  1  0
  8  9  1  0
  8 27  1  6
  8 28  1  0
  9 10  2  0
  9 11  1  0
 11 12  1  0
 11 29  1  0
 12 13  2  0
 12 17  1  0
 13 14  1  0
 13 30  1  0
 14 15  2  0
 15 16  1  0
 15 31  1  0
 16 17  2  0
 16 32  1  0
 17 18  1  0
 19 18  1  6
 19 20  1  0
 19 21  1  0
 19 22  1  0
 20 33  1  1
 20 34  1  0
 20 35  1  0
 21 36  1  1
 21 37  1  0
 21 38  1  0
 22 39  1  1
 22 40  1  0
 22 41  1  0
M  END
$$$$
