LIG(A-305)
     RDKit          3D

 38 40  0  0  1  0  0  0  0  0999 V2000
    5.4706    1.0863   17.8338 Br  0  0  0  0  0  0  0  0  0  0  0  0
    6.1646   -0.0427   19.1909 C   0  0  0  0  0  0  0  0  0  0  0  0
    6.2956   -1.3917   18.9309 C   0  0  0  0  0  0  0  0  0  0  0  0
    6.8646   -2.2017   19.9019 C   0  0  0  0  0  0  0  0  0  0  0  0
    7.2636   -3.6477   19.8850 C   0  0  0  0  0  0  0  0  0  0  0  0
    6.1587   -4.5207   19.7650 O   0  0  0  0  0  0  0  0  0  0  0  0
    7.8716   -3.8576   21.2630 C   0  0  0  0  0  0  0  0  0  0  0  0
    8.3456   -4.8896   21.6981 O   0  0  0  0  0  0  0  0  0  0  0  0
    6.5565    0.5153   20.3969 C   0  0  0  0  0  0  0  0  0  0  0  0
    7.1075   -0.2966   21.3739 C   0  0  0  0  0  0  0  0  0  0  0  0
    7.2576   -1.6556   21.1169 C   0  0  0  0  0  0  0  0  0  0  0  0
    7.8096   -2.6586   21.9280 N   0  0  0  0  0  0  0  0  0  0  0  0
    8.3225   -2.4565   23.2840 C   0  0  1  0  0  0  0  0  0  0  0  0
    9.5225   -1.5405   23.3380 C   0  0  0  0  0  0  0  0  0  0  0  0
   10.3825   -1.4165   22.2460 C   0  0  0  0  0  0  0  0  0  0  0  0
   11.4275   -0.5085   22.2630 C   0  0  0  0  0  0  0  0  0  0  0  0
   11.6455    0.2725   23.3720 C   0  0  0  0  0  0  0  0  0  0  0  0
   10.8274    0.1535   24.4840 C   0  0  0  0  0  0  0  0  0  0  0  0
    9.7655   -0.7425   24.4600 C   0  0  0  0  0  0  0  0  0  0  0  0
    8.8934   -0.9195   25.5110 O   0  0  0  0  0  0  0  0  0  0  0  0
    8.6974    0.1626   26.4409 C   0  0  1  0  0  0  0  0  0  0  0  0
    7.9454   -0.3584   27.6039 C   0  0  1  0  0  0  0  0  0  0  0  0
    5.9622   -1.8075   17.9916 H   0  0  0  0  0  0  0  0  0  0  0  0
    6.2597   -5.2453   20.3710 H   0  0  0  0  0  0  0  0  0  0  0  0
    8.2879   -5.5688   21.0363 H   0  0  0  0  0  0  0  0  0  0  0  0
    6.4335    1.5737   20.5733 H   0  0  0  0  0  0  0  0  0  0  0  0
    7.4163    0.1191   22.3217 H   0  0  0  0  0  0  0  0  0  0  0  0
    7.5218   -2.0198   23.8988 H   0  0  0  0  0  0  0  0  0  0  0  0
    8.6106   -3.4342   23.6977 H   0  0  0  0  0  0  0  0  0  0  0  0
   10.2308   -2.0375   21.3755 H   0  0  0  0  0  0  0  0  0  0  0  0
   12.0730   -0.4139   21.4023 H   0  0  0  0  0  0  0  0  0  0  0  0
   12.4588    0.9831   23.3771 H   0  0  0  0  0  0  0  0  0  0  0  0
   11.0138    0.7528   25.3630 H   0  0  0  0  0  0  0  0  0  0  0  0
    9.6721    0.5509   26.7713 H   0  0  0  0  0  0  0  0  0  0  0  0
    8.1257    0.9691   25.9587 H   0  0  0  0  0  0  0  0  0  0  0  0
    7.7833    0.4523   28.3295 H   0  0  0  0  0  0  0  0  0  0  0  0
    6.9736   -0.7485   27.2671 H   0  0  0  0  0  0  0  0  0  0  0  0
    8.5200   -1.1668   28.0797 H   0  0  0  0  0  0  0  0  0  0  0  0
  1  2  1  0
  2  3  2  0
  2  9  1  0
  3  4  1  0
  3 23  1  0
  4  5  1  0
  4 11  2  0
  5  6  1  0
  5  7  2  0
  6 24  1  0
  7  8  1  0
  7 12  1  0
  8 25  1  0
  9 10  2  0
  9 26  1  0
 10 11  1  0
 10 27  1  0
 11 12  1  0
 12 13  1  0
 13 14  1  0
 13 28  1  1
 13 29  1  0
 14 15  2  0
 14 19  1  0
 15 16  1  0
 15 30  1  0
 16 17  2  0
 16 31  1  0
 17 18  1  0
 17 32  1  0
 18 19  2  0
 18 33  1  0
 19 20  1  0
 20 21  1  0
 21 22  1  0
 21 34  1  1
 21 35  1  0
 22 36  1  1
 22 37  1  0
 22 38  1  0
M  END
$$$$
