LIG(A-306)
     RDKit          3D

 38 40  0  0  1  0  0  0  0  0999 V2000
  -14.2061   -2.4302  -21.2776 Cl  0  0  0  0  0  0  0  0  0  0  0  0
  -12.9437   -1.7008  -22.2168 C   0  0  0  0  0  0  0  0  0  0  0  0
  -13.2257   -0.6931  -23.1290 C   0  0  0  0  0  0  0  0  0  0  0  0
  -14.8581   -0.2352  -23.4813 Cl  0  0  0  0  0  0  0  0  0  0  0  0
  -12.1940   -0.0273  -23.7602 C   0  0  0  0  0  0  0  0  0  0  0  0
  -10.8854   -0.3781  -23.4931 C   0  0  0  0  0  0  0  0  0  0  0  0
  -11.6332   -2.0636  -21.9678 C   0  0  0  0  0  0  0  0  0  0  0  0
  -10.5885   -1.3978  -22.5989 C   0  0  0  0  0  0  0  0  0  0  0  0
   -9.1589   -1.7661  -22.2811 C   0  0  1  0  0  0  0  0  0  0  0  0
   -8.3954   -2.1970  -23.4036 O   0  0  0  0  0  0  0  0  0  0  0  0
   -7.7929   -1.1219  -24.1357 C   0  0  1  0  0  0  0  0  0  0  0  0
   -8.4984   -0.7357  -21.3595 C   0  0  0  0  0  0  0  0  0  0  0  0
   -9.0456    0.3448  -21.1311 O   0  0  0  0  0  0  0  0  0  0  0  0
   -7.3525   -1.1402  -20.7714 N   0  0  0  0  0  0  0  0  0  0  0  0
   -6.6637   -0.5033  -19.7321 C   0  0  0  0  0  0  0  0  0  0  0  0
   -5.6400    0.4335  -20.0643 C   0  0  0  0  0  0  0  0  0  0  0  0
   -5.2122    0.6981  -21.3910 C   0  0  0  0  0  0  0  0  0  0  0  0
   -4.2534    1.6368  -21.6441 C   0  0  0  0  0  0  0  0  0  0  0  0
   -3.6714    2.3510  -20.6064 C   0  0  0  0  0  0  0  0  0  0  0  0
   -4.0472    2.1294  -19.3137 C   0  0  0  0  0  0  0  0  0  0  0  0
   -5.0449    1.1726  -19.0076 C   0  0  0  0  0  0  0  0  0  0  0  0
   -5.5107    0.9292  -17.6948 C   0  0  0  0  0  0  0  0  0  0  0  0
   -6.4583    0.0553  -17.3885 N   0  0  0  0  0  0  0  0  0  0  0  0
   -7.0052   -0.6431  -18.3901 C   0  0  0  0  0  0  0  0  0  0  0  0
  -12.4098    0.7658  -24.4608 H   0  0  0  0  0  0  0  0  0  0  0  0
  -10.0817    0.1481  -23.9867 H   0  0  0  0  0  0  0  0  0  0  0  0
  -11.4198   -2.8681  -21.2796 H   0  0  0  0  0  0  0  0  0  0  0  0
   -9.2520   -2.6599  -21.6468 H   0  0  0  0  0  0  0  0  0  0  0  0
   -7.2226   -1.5292  -24.9835 H   0  0  0  0  0  0  0  0  0  0  0  0
   -8.5779   -0.4492  -24.5115 H   0  0  0  0  0  0  0  0  0  0  0  0
   -7.1160   -0.5617  -23.4739 H   0  0  0  0  0  0  0  0  0  0  0  0
   -6.9512   -1.9888  -21.1162 H   0  0  0  0  0  0  0  0  0  0  0  0
   -5.6507    0.1496  -22.2116 H   0  0  0  0  0  0  0  0  0  0  0  0
   -3.9451    1.8252  -22.6619 H   0  0  0  0  0  0  0  0  0  0  0  0
   -2.9138    3.0892  -20.8243 H   0  0  0  0  0  0  0  0  0  0  0  0
   -3.5795    2.6888  -18.5169 H   0  0  0  0  0  0  0  0  0  0  0  0
   -5.0647    1.4928  -16.8887 H   0  0  0  0  0  0  0  0  0  0  0  0
   -7.7662   -1.3672  -18.1394 H   0  0  0  0  0  0  0  0  0  0  0  0
  1  2  1  0
  2  3  2  0
  2  7  1  0
  3  4  1  0
  3  5  1  0
  5  6  2  0
  5 25  1  0
  6  8  1  0
  6 26  1  0
  7  8  2  0
  7 27  1  0
  8  9  1  0
  9 10  1  0
  9 12  1  0
  9 28  1  1
 10 11  1  0
 11 29  1  6
 11 30  1  0
 11 31  1  0
 12 13  2  0
 12 14  1  0
 14 15  1  0
 14 32  1  0
 15 16  2  0
 15 24  1  0
 16 17  1  0
 16 21  1  0
 17 18  2  0
 17 33  1  0
 18 19  1  0
 18 34  1  0
 19 20  2  0
 19 35  1  0
 20 21  1  0
 20 36  1  0
 21 22  2  0
 22 23  1  0
 22 37  1  0
 23 24  2  0
 24 38  1  0
M  END
$$$$
