LIG(A-306)
     RDKit          3D

 53 57  0  0  1  0  0  0  0  0999 V2000
   10.5776    3.1469   24.4858 O   0  0  0  0  0  0  0  0  0  0  0  0
   10.2498    1.9908   24.2719 C   0  0  0  0  0  0  0  0  0  0  0  0
    8.9699    1.5636   24.4800 N   0  0  0  0  0  0  0  0  0  0  0  0
    7.9897    2.4844   25.0979 C   0  0  1  0  0  0  0  0  0  0  0  0
    7.2338    1.9524   26.2830 C   0  0  1  0  0  0  0  0  0  0  0  0
    8.3037    2.9676   26.4869 C   0  0  2  0  0  0  0  0  0  0  0  0
    7.2275    3.4592   24.1989 C   0  0  0  0  0  0  0  0  0  0  0  0
    6.2284    4.0061   24.6449 O   0  0  0  0  0  0  0  0  0  0  0  0
    7.6874    3.6712   22.9699 N   0  0  0  0  0  0  0  0  0  0  0  0
    7.0202    4.5830   22.0618 C   0  0  1  0  0  0  0  0  0  0  0  0
   11.1729    1.0330   23.6419 C   0  0  0  0  0  0  0  0  0  0  0  0
   12.5249    1.3592   23.5299 C   0  0  0  0  0  0  0  0  0  0  0  0
   13.4060    0.4834   22.9239 C   0  0  0  0  0  0  0  0  0  0  0  0
   12.9293   -0.7088   22.4260 C   0  0  0  0  0  0  0  0  0  0  0  0
   14.0395   -1.8126   21.6710 Cl  0  0  0  0  0  0  0  0  0  0  0  0
   11.5883   -1.0380   22.4811 C   0  0  0  0  0  0  0  0  0  0  0  0
   10.6872   -0.1502   23.0680 C   0  0  0  0  0  0  0  0  0  0  0  0
    9.1992   -0.4085   22.9871 C   0  0  1  0  0  0  0  0  0  0  0  0
    8.5081    0.1825   24.2151 C   0  0  2  0  0  0  0  0  0  0  0  0
    8.6250    0.2613   21.7341 C   0  0  0  0  0  0  0  0  0  0  0  0
    9.0498    1.3414   21.3120 O   0  0  0  0  0  0  0  0  0  0  0  0
    7.5772   -0.3939   21.1741 N   0  0  0  0  0  0  0  0  0  0  0  0
    6.7820    0.0129   20.0791 C   0  0  0  0  0  0  0  0  0  0  0  0
    5.6649    0.8637   20.3351 C   0  0  0  0  0  0  0  0  0  0  0  0
    5.1679    1.1407   21.6341 C   0  0  0  0  0  0  0  0  0  0  0  0
    4.0887    1.9584   21.8131 C   0  0  0  0  0  0  0  0  0  0  0  0
    3.4586    2.5483   20.7271 C   0  0  0  0  0  0  0  0  0  0  0  0
    3.8946    2.3093   19.4551 C   0  0  0  0  0  0  0  0  0  0  0  0
    4.9937    1.4475   19.2221 C   0  0  0  0  0  0  0  0  0  0  0  0
    5.4408    1.0955   17.9231 C   0  0  0  0  0  0  0  0  0  0  0  0
    6.4439    0.2607   17.6831 N   0  0  0  0  0  0  0  0  0  0  0  0
    7.0891   -0.2521   18.7421 C   0  0  0  0  0  0  0  0  0  0  0  0
    6.1794    2.2286   26.4308 H   0  0  0  0  0  0  0  0  0  0  0  0
    7.3910    0.9151   26.6139 H   0  0  0  0  0  0  0  0  0  0  0  0
    8.0384    3.9926   26.7849 H   0  0  0  0  0  0  0  0  0  0  0  0
    9.2499    2.6792   26.9679 H   0  0  0  0  0  0  0  0  0  0  0  0
    8.5106    3.1919   22.6655 H   0  0  0  0  0  0  0  0  0  0  0  0
    7.5621    4.6103   21.1049 H   0  0  0  0  0  0  0  0  0  0  0  0
    5.9894    4.2399   21.8897 H   0  0  0  0  0  0  0  0  0  0  0  0
    7.0025    5.5911   22.5019 H   0  0  0  0  0  0  0  0  0  0  0  0
   12.8846    2.3005   23.9184 H   0  0  0  0  0  0  0  0  0  0  0  0
   14.4542    0.7307   22.8421 H   0  0  0  0  0  0  0  0  0  0  0  0
   11.2409   -1.9755   22.0727 H   0  0  0  0  0  0  0  0  0  0  0  0
    9.0111   -1.4914   22.9438 H   0  0  0  0  0  0  0  0  0  0  0  0
    7.4216    0.1947   24.0435 H   0  0  0  0  0  0  0  0  0  0  0  0
    8.7342   -0.4448   25.0899 H   0  0  0  0  0  0  0  0  0  0  0  0
    7.3381   -1.2727   21.5871 H   0  0  0  0  0  0  0  0  0  0  0  0
    5.6495    0.6987   22.4939 H   0  0  0  0  0  0  0  0  0  0  0  0
    3.7219    2.1480   22.8111 H   0  0  0  0  0  0  0  0  0  0  0  0
    2.6149    3.2028   20.8891 H   0  0  0  0  0  0  0  0  0  0  0  0
    3.3972    2.7811   18.6206 H   0  0  0  0  0  0  0  0  0  0  0  0
    4.9332    1.5340   17.0767 H   0  0  0  0  0  0  0  0  0  0  0  0
    7.9117   -0.9237   18.5452 H   0  0  0  0  0  0  0  0  0  0  0  0
  1  2  2  0
  2  3  1  0
  2 11  1  0
  4  3  1  6
  3 19  1  0
  4  5  1  0
  4  6  1  0
  4  7  1  0
  5  6  1  0
  5 33  1  6
  5 34  1  0
  6 35  1  6
  6 36  1  0
  7  8  2  0
  7  9  1  0
  9 10  1  0
  9 37  1  0
 10 38  1  6
 10 39  1  0
 10 40  1  0
 11 12  2  0
 11 17  1  0
 12 13  1  0
 12 41  1  0
 13 14  2  0
 13 42  1  0
 14 15  1  0
 14 16  1  0
 16 17  2  0
 16 43  1  0
 17 18  1  0
 18 19  1  0
 18 20  1  0
 18 44  1  6
 19 45  1  6
 19 46  1  0
 20 21  2  0
 20 22  1  0
 22 23  1  0
 22 47  1  0
 23 24  2  0
 23 32  1  0
 24 25  1  0
 24 29  1  0
 25 26  2  0
 25 48  1  0
 26 27  1  0
 26 49  1  0
 27 28  2  0
 27 50  1  0
 28 29  1  0
 28 51  1  0
 29 30  2  0
 30 31  1  0
 30 52  1  0
 31 32  2  0
 32 53  1  0
M  END
$$$$
