LIG(A-306)
     RDKit          3D

 41 44  0  0  1  0  0  0  0  0999 V2000
   -8.9464    0.4184  -21.3489 O   0  0  0  0  0  0  0  0  0  0  0  0
   -8.3143   -0.4712  -21.8989 C   0  0  0  0  0  0  0  0  0  0  0  0
   -8.7956   -1.0705  -23.2183 C   0  0  2  0  0  0  0  0  0  0  0  0
  -10.3108   -1.0846  -23.3022 C   0  0  0  0  0  0  0  0  0  0  0  0
  -11.0670   -1.7491  -22.3454 C   0  0  0  0  0  0  0  0  0  0  0  0
  -12.4472   -1.7896  -22.4266 C   0  0  0  0  0  0  0  0  0  0  0  0
  -10.9688   -0.4674  -24.3571 C   0  0  0  0  0  0  0  0  0  0  0  0
  -12.3490   -0.4928  -24.4523 C   0  0  0  0  0  0  0  0  0  0  0  0
  -13.0732   -1.1514  -23.4805 C   0  0  0  0  0  0  0  0  0  0  0  0
  -14.8113   -1.1540  -23.5660 Cl  0  0  0  0  0  0  0  0  0  0  0  0
   -7.1257   -0.9308  -21.4012 N   0  0  0  0  0  0  0  0  0  0  0  0
   -6.5302   -2.2381  -21.7256 C   0  0  1  0  0  0  0  0  0  0  0  0
   -6.7701   -2.5714  -23.1854 C   0  0  1  0  0  0  0  0  0  0  0  0
   -8.2564   -2.4848  -23.5080 C   0  0  2  0  0  0  0  0  0  0  0  0
   -6.5326   -0.3372  -20.2450 C   0  0  0  0  0  0  0  0  0  0  0  0
   -5.4677    0.5900  -20.4263 C   0  0  0  0  0  0  0  0  0  0  0  0
   -4.9386    0.9551  -21.6908 C   0  0  0  0  0  0  0  0  0  0  0  0
   -3.9246    1.8620  -21.7941 C   0  0  0  0  0  0  0  0  0  0  0  0
   -3.3836    2.4508  -20.6588 C   0  0  0  0  0  0  0  0  0  0  0  0
   -3.8556    2.1346  -19.4192 C   0  0  0  0  0  0  0  0  0  0  0  0
   -4.9036    1.1956  -19.2650 C   0  0  0  0  0  0  0  0  0  0  0  0
   -5.4306    0.8225  -18.0045 C   0  0  0  0  0  0  0  0  0  0  0  0
   -6.4095   -0.0578  -17.8402 N   0  0  0  0  0  0  0  0  0  0  0  0
   -6.9354   -0.6117  -18.9433 C   0  0  0  0  0  0  0  0  0  0  0  0
   -8.4304   -0.4164  -24.0238 H   0  0  0  0  0  0  0  0  0  0  0  0
  -10.5689   -2.2427  -21.5240 H   0  0  0  0  0  0  0  0  0  0  0  0
  -13.0261   -2.3112  -21.6788 H   0  0  0  0  0  0  0  0  0  0  0  0
  -10.3937    0.0414  -25.1166 H   0  0  0  0  0  0  0  0  0  0  0  0
  -12.8513   -0.0046  -25.2744 H   0  0  0  0  0  0  0  0  0  0  0  0
   -5.4477   -2.2027  -21.5335 H   0  0  0  0  0  0  0  0  0  0  0  0
   -6.9894   -3.0137  -21.0949 H   0  0  0  0  0  0  0  0  0  0  0  0
   -6.2193   -1.8581  -23.8161 H   0  0  0  0  0  0  0  0  0  0  0  0
   -6.4132   -3.5920  -23.3883 H   0  0  0  0  0  0  0  0  0  0  0  0
   -8.4090   -2.7184  -24.5720 H   0  0  0  0  0  0  0  0  0  0  0  0
   -8.8028   -3.2129  -22.8906 H   0  0  0  0  0  0  0  0  0  0  0  0
   -5.3449    0.5080  -22.5859 H   0  0  0  0  0  0  0  0  0  0  0  0
   -3.5390    2.1246  -22.7681 H   0  0  0  0  0  0  0  0  0  0  0  0
   -2.5808    3.1664  -20.7586 H   0  0  0  0  0  0  0  0  0  0  0  0
   -3.4259    2.6049  -18.5471 H   0  0  0  0  0  0  0  0  0  0  0  0
   -5.0098    1.2829  -17.1228 H   0  0  0  0  0  0  0  0  0  0  0  0
   -7.7338   -1.3266  -18.8095 H   0  0  0  0  0  0  0  0  0  0  0  0
  1  2  2  0
  2  3  1  0
  2 11  1  0
  3  4  1  0
  3 14  1  0
  3 25  1  6
  4  5  2  0
  4  7  1  0
  5  6  1  0
  5 26  1  0
  6  9  2  0
  6 27  1  0
  7  8  2  0
  7 28  1  0
  8  9  1  0
  8 29  1  0
  9 10  1  0
 11 12  1  0
 11 15  1  0
 12 13  1  0
 12 30  1  6
 12 31  1  0
 13 14  1  0
 13 32  1  6
 13 33  1  0
 14 34  1  6
 14 35  1  0
 15 16  2  0
 15 24  1  0
 16 17  1  0
 16 21  1  0
 17 18  2  0
 17 36  1  0
 18 19  1  0
 18 37  1  0
 19 20  2  0
 19 38  1  0
 20 21  1  0
 20 39  1  0
 21 22  2  0
 22 23  1  0
 22 40  1  0
 23 24  2  0
 24 41  1  0
M  END
$$$$
