LIG(A-305)
     RDKit          3D

 34 35  0  0  0  0  0  0  0  0999 V2000
    8.6735    0.8729   21.3891 O   0  0  0  0  0  0  0  0  0  0  0  0
    8.3204   -0.2860   21.1831 C   0  0  0  0  0  0  0  0  0  0  0  0
    8.9523   -1.4561   21.9122 C   0  0  1  0  0  0  0  0  0  0  0  0
    9.9483   -0.9601   22.9351 C   0  0  0  0  0  0  0  0  0  0  0  0
   11.2654   -0.7193   22.5701 C   0  0  0  0  0  0  0  0  0  0  0  0
   12.1414   -0.0533   23.4130 C   0  0  0  0  0  0  0  0  0  0  0  0
   13.5335    0.2985   22.9570 C   0  0  1  0  0  0  0  0  0  0  0  0
   11.6825    0.3278   24.6680 C   0  0  0  0  0  0  0  0  0  0  0  0
    9.5294   -0.5820   24.2051 C   0  0  0  0  0  0  0  0  0  0  0  0
   10.3845    0.0659   25.0871 C   0  0  0  0  0  0  0  0  0  0  0  0
    9.9056    0.4990   26.4511 C   0  0  1  0  0  0  0  0  0  0  0  0
    7.4873   -0.6340   20.1572 N   0  0  0  0  0  0  0  0  0  0  0  0
    6.6323    0.0140   19.2992 C   0  0  0  0  0  0  0  0  0  0  0  0
    5.8505    1.1311   19.5911 N   0  0  0  0  0  0  0  0  0  0  0  0
    5.5375    1.6952   20.9021 C   0  0  1  0  0  0  0  0  0  0  0  0
    5.3485    1.5611   18.4271 C   0  0  0  0  0  0  0  0  0  0  0  0
    5.7484    0.7991   17.4522 N   0  0  0  0  0  0  0  0  0  0  0  0
    6.5553   -0.1910   17.9952 N   0  0  0  0  0  0  0  0  0  0  0  0
    8.1665   -2.0338   22.4210 H   0  0  0  0  0  0  0  0  0  0  0  0
    9.4687   -2.1004   21.1855 H   0  0  0  0  0  0  0  0  0  0  0  0
   11.6160   -1.0586   21.6066 H   0  0  0  0  0  0  0  0  0  0  0  0
   13.6811   -0.0513   21.9246 H   0  0  0  0  0  0  0  0  0  0  0  0
   13.6675    1.3896   22.9970 H   0  0  0  0  0  0  0  0  0  0  0  0
   14.2687   -0.1856   23.6166 H   0  0  0  0  0  0  0  0  0  0  0  0
   12.3553    0.8431   25.3376 H   0  0  0  0  0  0  0  0  0  0  0  0
    8.5167   -0.7968   24.5130 H   0  0  0  0  0  0  0  0  0  0  0  0
    9.9862    1.5926   26.5384 H   0  0  0  0  0  0  0  0  0  0  0  0
    8.8562    0.1971   26.5841 H   0  0  0  0  0  0  0  0  0  0  0  0
   10.5251    0.0229   27.2253 H   0  0  0  0  0  0  0  0  0  0  0  0
    7.5047   -1.6191   19.9861 H   0  0  0  0  0  0  0  0  0  0  0  0
    6.0237    1.0952   21.6855 H   0  0  0  0  0  0  0  0  0  0  0  0
    5.9048    2.7309   20.9527 H   0  0  0  0  0  0  0  0  0  0  0  0
    4.4483    1.6846   21.0552 H   0  0  0  0  0  0  0  0  0  0  0  0
    4.7027    2.4194   18.3137 H   0  0  0  0  0  0  0  0  0  0  0  0
  1  2  2  0
  2  3  1  0
  2 12  1  0
  3  4  1  0
  3 19  1  1
  3 20  1  0
  4  5  2  0
  4  9  1  0
  5  6  1  0
  5 21  1  0
  6  7  1  0
  6  8  2  0
  7 22  1  6
  7 23  1  0
  7 24  1  0
  8 10  1  0
  8 25  1  0
  9 10  2  0
  9 26  1  0
 10 11  1  0
 11 27  1  6
 11 28  1  0
 11 29  1  0
 12 13  1  0
 12 30  1  0
 13 14  1  0
 13 18  2  0
 14 15  1  0
 14 16  1  0
 15 31  1  1
 15 32  1  0
 15 33  1  0
 16 17  2  0
 16 34  1  0
 17 18  1  0
M  END
$$$$
