LIG(A-306)
     RDKit          3D

 54 58  0  0  1  0  0  0  0  0999 V2000
    9.1214    1.3099   21.2977 O   0  0  0  0  0  0  0  0  0  0  0  0
    8.6665    0.2629   21.7277 C   0  0  0  0  0  0  0  0  0  0  0  0
    7.6066   -0.4532   21.1856 N   0  0  0  0  0  0  0  0  0  0  0  0
    6.8076   -0.0144   20.0435 C   0  0  0  0  0  0  0  0  0  0  0  0
    5.6725    0.8245   20.2714 C   0  0  0  0  0  0  0  0  0  0  0  0
    5.1544    1.1445   21.5534 C   0  0  0  0  0  0  0  0  0  0  0  0
    4.0813    1.9774   21.6892 C   0  0  0  0  0  0  0  0  0  0  0  0
    3.4693    2.5363   20.5732 C   0  0  0  0  0  0  0  0  0  0  0  0
    3.9205    2.2463   19.3162 C   0  0  0  0  0  0  0  0  0  0  0  0
    5.0246    1.3804   19.1273 C   0  0  0  0  0  0  0  0  0  0  0  0
    5.5447    1.0454   17.8474 C   0  0  0  0  0  0  0  0  0  0  0  0
    6.6068    0.2705   17.6495 N   0  0  0  0  0  0  0  0  0  0  0  0
    7.2168   -0.2304   18.7336 C   0  0  0  0  0  0  0  0  0  0  0  0
    7.4637   -1.7312   21.7527 C   0  0  0  0  0  0  0  0  0  0  0  0
    6.5618   -2.5003   21.5166 O   0  0  0  0  0  0  0  0  0  0  0  0
    8.6256   -1.9301   22.6978 C   0  0  1  0  0  0  0  0  0  0  0  0
    9.1674   -0.5100   22.9548 C   0  0  1  0  0  0  0  0  0  0  0  0
   10.6924   -0.3988   23.0589 C   0  0  0  0  0  0  0  0  0  0  0  0
   11.5386   -1.1988   22.2860 C   0  0  0  0  0  0  0  0  0  0  0  0
   12.8895   -0.9096   22.2511 C   0  0  0  0  0  0  0  0  0  0  0  0
   13.9257   -1.8366   21.2022 Cl  0  0  0  0  0  0  0  0  0  0  0  0
   13.4334    0.1204   22.9791 C   0  0  0  0  0  0  0  0  0  0  0  0
   12.6042    0.8804   23.7830 C   0  0  0  0  0  0  0  0  0  0  0  0
   11.2392    0.6352   23.8389 C   0  0  0  0  0  0  0  0  0  0  0  0
   10.3881    1.4832   24.7568 C   0  0  1  0  0  0  0  0  0  0  0  0
    8.4733    0.1470   24.1797 C   0  0  1  0  0  0  0  0  0  0  0  0
    8.9751    1.5090   24.3507 N   0  0  1  0  0  0  0  0  0  0  0  0
    8.1799    2.3920   25.1996 C   0  0  1  0  0  0  0  0  0  0  0  0
    7.3409    3.4008   24.4345 C   0  0  0  0  0  0  0  0  0  0  0  0
    6.3258    3.8788   24.9344 O   0  0  0  0  0  0  0  0  0  0  0  0
    7.7480    3.7168   23.2085 N   0  0  0  0  0  0  0  0  0  0  0  0
    6.9610    4.5517   22.3204 C   0  0  1  0  0  0  0  0  0  0  0  0
    5.6157    0.7230   22.4342 H   0  0  0  0  0  0  0  0  0  0  0  0
    3.7035    2.2047   22.6751 H   0  0  0  0  0  0  0  0  0  0  0  0
    2.6307    3.2049   20.7005 H   0  0  0  0  0  0  0  0  0  0  0  0
    3.4299    2.6820   18.4584 H   0  0  0  0  0  0  0  0  0  0  0  0
    5.0441    1.4468   16.9786 H   0  0  0  0  0  0  0  0  0  0  0  0
    8.0897   -0.8467   18.5769 H   0  0  0  0  0  0  0  0  0  0  0  0
    8.2873   -2.3922   23.6369 H   0  0  0  0  0  0  0  0  0  0  0  0
    9.3980   -2.5623   22.2355 H   0  0  0  0  0  0  0  0  0  0  0  0
   11.1422   -2.0313   21.7238 H   0  0  0  0  0  0  0  0  0  0  0  0
   14.4908    0.3330   22.9244 H   0  0  0  0  0  0  0  0  0  0  0  0
   13.0255    1.6777   24.3772 H   0  0  0  0  0  0  0  0  0  0  0  0
   10.4546    1.0753   25.7762 H   0  0  0  0  0  0  0  0  0  0  0  0
   10.7767    2.5122   24.7474 H   0  0  0  0  0  0  0  0  0  0  0  0
    7.3862    0.1747   24.0140 H   0  0  0  0  0  0  0  0  0  0  0  0
    8.6914   -0.4405   25.0837 H   0  0  0  0  0  0  0  0  0  0  0  0
    8.9620    1.9212   23.4397 H   0  0  0  0  0  0  0  0  0  0  0  0
    7.5046    1.7710   25.8064 H   0  0  0  0  0  0  0  0  0  0  0  0
    8.8645    2.9433   25.8609 H   0  0  0  0  0  0  0  0  0  0  0  0
    8.6278    3.3665   22.8873 H   0  0  0  0  0  0  0  0  0  0  0  0
    7.4936    4.6769   21.3661 H   0  0  0  0  0  0  0  0  0  0  0  0
    5.9868    4.0750   22.1366 H   0  0  0  0  0  0  0  0  0  0  0  0
    6.8054    5.5365   22.7851 H   0  0  0  0  0  0  0  0  0  0  0  0
  1  2  2  0
  2  3  1  0
 17  2  1  6
  3  4  1  0
  3 14  1  0
  4  5  2  0
  4 13  1  0
  5  6  1  0
  5 10  1  0
  6  7  2  0
  6 33  1  0
  7  8  1  0
  7 34  1  0
  8  9  2  0
  8 35  1  0
  9 10  1  0
  9 36  1  0
 10 11  2  0
 11 12  1  0
 11 37  1  0
 12 13  2  0
 13 38  1  0
 14 15  2  0
 14 16  1  0
 16 17  1  0
 16 39  1  1
 16 40  1  0
 17 18  1  0
 17 26  1  0
 18 19  2  0
 18 24  1  0
 19 20  1  0
 19 41  1  0
 20 21  1  0
 20 22  2  0
 22 23  1  0
 22 42  1  0
 23 24  2  0
 23 43  1  0
 24 25  1  0
 25 27  1  0
 25 44  1  1
 25 45  1  0
 26 27  1  0
 26 46  1  6
 26 47  1  0
 27 28  1  0
 27 48  1  6
 28 29  1  0
 28 49  1  1
 28 50  1  0
 29 30  2  0
 29 31  1  0
 31 32  1  0
 31 51  1  0
 32 52  1  6
 32 53  1  0
 32 54  1  0
M  CHG  1  27   1
M  END
$$$$
