LIG(A-305)
     RDKit          3D

 14 13  0  0  0  0  0  0  0  0999 V2000
   10.2634   -5.8013   25.0959 N   0  0  0  0  0  0  0  0  0  0  0  0
    8.8225   -3.5492   23.3681 C   0  0  1  0  0  0  0  0  0  0  0  0
    8.2104   -4.7892   24.0211 C   0  0  1  0  0  0  0  0  0  0  0  0
    9.1005   -5.2472   25.1770 C   0  0  0  0  0  0  0  0  0  0  0  0
    8.5865   -5.0382   26.4480 N   0  0  0  0  0  0  0  0  0  0  0  0
   10.7532   -6.0599   25.9285 H   0  0  0  0  0  0  0  0  0  0  0  0
   10.6746   -5.9720   24.2005 H   0  0  0  0  0  0  0  0  0  0  0  0
    8.1830   -3.2187   22.5363 H   0  0  0  0  0  0  0  0  0  0  0  0
    8.9006   -2.7435   24.1129 H   0  0  0  0  0  0  0  0  0  0  0  0
    9.8246   -3.7932   22.9855 H   0  0  0  0  0  0  0  0  0  0  0  0
    7.2085   -4.5454   24.4039 H   0  0  0  0  0  0  0  0  0  0  0  0
    8.1323   -5.5951   23.2765 H   0  0  0  0  0  0  0  0  0  0  0  0
    9.1135   -5.3137   27.2520 H   0  0  0  0  0  0  0  0  0  0  0  0
    7.6890   -4.6121   26.5606 H   0  0  0  0  0  0  0  0  0  0  0  0
  1  4  2  0
  1  6  1  0
  1  7  1  0
  2  3  1  0
  2  8  1  6
  2  9  1  0
  2 10  1  0
  3  4  1  0
  3 11  1  1
  3 12  1  0
  4  5  1  0
  5 13  1  0
  5 14  1  0
M  CHG  1   1   1
M  END
$$$$
