LIG(A-305)
     RDKit          3D

 26 27  0  0  1  0  0  0  0  0999 V2000
    9.5594    1.8206   22.2671 C   0  0  0  0  0  0  0  0  0  0  0  0
    9.1745    1.1617   23.6342 C   0  0  1  0  0  0  0  0  0  0  0  0
    7.8495    1.0688   23.7853 C   0  0  1  0  0  0  0  0  0  0  0  0
    7.4574   -0.4402   23.3713 C   0  0  1  0  0  0  0  0  0  0  0  0
    8.8263   -1.1343   23.0352 C   0  0  1  0  0  0  0  0  0  0  0  0
    9.7484   -0.4003   23.7152 C   0  0  1  0  0  0  0  0  0  0  0  0
   11.1753   -0.4875   23.1191 C   0  0  0  0  0  0  0  0  0  0  0  0
   12.1814    0.4345   23.4970 C   0  0  0  0  0  0  0  0  0  0  0  0
   13.4364    0.2234   22.8749 C   0  0  0  0  0  0  0  0  0  0  0  0
   11.5532   -1.4825   22.1960 C   0  0  0  0  0  0  0  0  0  0  0  0
   10.3505    3.0596   22.2720 N   0  0  0  0  0  0  0  0  0  0  0  0
    9.2263    1.3206   21.2132 O   0  0  0  0  0  0  0  0  0  0  0  0
   13.2422   -1.1706   21.8339 S   0  0  0  0  0  0  0  0  0  0  0  0
    9.6460    1.7323   24.4478 H   0  0  0  0  0  0  0  0  0  0  0  0
    7.5699    1.2627   24.8313 H   0  0  0  0  0  0  0  0  0  0  0  0
    7.3389    1.7895   23.1296 H   0  0  0  0  0  0  0  0  0  0  0  0
    6.9577   -0.9533   24.2062 H   0  0  0  0  0  0  0  0  0  0  0  0
    6.7965   -0.4413   22.4920 H   0  0  0  0  0  0  0  0  0  0  0  0
    8.8287   -2.1792   23.3792 H   0  0  0  0  0  0  0  0  0  0  0  0
    9.0239   -1.1038   21.9536 H   0  0  0  0  0  0  0  0  0  0  0  0
    9.7885   -0.6835   24.7774 H   0  0  0  0  0  0  0  0  0  0  0  0
   12.0063    1.2335   24.2020 H   0  0  0  0  0  0  0  0  0  0  0  0
   14.3345    0.8065   23.0149 H   0  0  0  0  0  0  0  0  0  0  0  0
   10.9338   -2.2714   21.7955 H   0  0  0  0  0  0  0  0  0  0  0  0
   10.6131    3.4886   21.4077 H   0  0  0  0  0  0  0  0  0  0  0  0
   10.6261    3.4734   23.1397 H   0  0  0  0  0  0  0  0  0  0  0  0
  1  2  1  0
  1 11  1  0
  1 12  2  0
  2  3  1  0
  2  6  1  0
  2 14  1  1
  3  4  1  0
  3 15  1  1
  3 16  1  0
  4  5  1  0
  4 17  1  1
  4 18  1  0
  5  6  1  0
  5 19  1  1
  5 20  1  0
  6  7  1  0
  6 21  1  1
  7  8  1  0
  7 10  2  0
  8  9  2  0
  8 22  1  0
  9 13  1  0
  9 23  1  0
 10 13  1  0
 10 24  1  0
 11 25  1  0
 11 26  1  0
M  END
$$$$
