LIG(A-305)
     RDKit          3D

 31 32  0  0  0  0  0  0  0  0999 V2000
   11.0679    0.0925   23.8471 C   0  0  0  0  0  0  0  0  0  0  0  0
   13.9068   -1.5887   21.4261 F   0  0  0  0  0  0  0  0  0  0  0  0
    6.6126    0.5389   17.6013 N   0  0  0  0  0  0  0  0  0  0  0  0
   12.9629   -1.0156   22.2301 C   0  0  0  0  0  0  0  0  0  0  0  0
    5.6157    0.8151   20.2143 C   0  0  0  0  0  0  0  0  0  0  0  0
   13.3739   -0.1425   23.2050 C   0  0  0  0  0  0  0  0  0  0  0  0
    5.1278    1.0652   21.6183 C   0  0  1  0  0  0  0  0  0  0  0  0
   10.6749   -0.7806   22.8402 C   0  0  0  0  0  0  0  0  0  0  0  0
    4.9687    1.3880   19.1273 C   0  0  0  0  0  0  0  0  0  0  0  0
    8.6868   -0.1927   21.4562 C   0  0  0  0  0  0  0  0  0  0  0  0
    7.4698   -0.5488   21.0133 N   0  0  0  0  0  0  0  0  0  0  0  0
    9.3178    0.7702   21.0221 O   0  0  0  0  0  0  0  0  0  0  0  0
    6.7777    0.0701   19.9503 C   0  0  0  0  0  0  0  0  0  0  0  0
    9.2119   -1.0586   22.5843 C   0  0  2  0  0  0  0  0  0  0  0  0
    7.2307   -0.0390   18.6363 C   0  0  0  0  0  0  0  0  0  0  0  0
   12.4069    0.4025   24.0340 C   0  0  0  0  0  0  0  0  0  0  0  0
   11.6478   -1.3537   22.0282 C   0  0  0  0  0  0  0  0  0  0  0  0
    5.4916    1.2279   17.8583 C   0  0  0  0  0  0  0  0  0  0  0  0
   10.3224    0.5347   24.4914 H   0  0  0  0  0  0  0  0  0  0  0  0
   14.4170    0.1116   23.3224 H   0  0  0  0  0  0  0  0  0  0  0  0
    4.2484    1.7253   21.5893 H   0  0  0  0  0  0  0  0  0  0  0  0
    4.8528    0.1087   22.0866 H   0  0  0  0  0  0  0  0  0  0  0  0
    5.9264    1.5440   22.2041 H   0  0  0  0  0  0  0  0  0  0  0  0
    4.0616    1.9557   19.2730 H   0  0  0  0  0  0  0  0  0  0  0  0
    7.0181   -1.3133   21.4733 H   0  0  0  0  0  0  0  0  0  0  0  0
    8.6392   -0.8452   23.4989 H   0  0  0  0  0  0  0  0  0  0  0  0
    9.0884   -2.1176   22.3130 H   0  0  0  0  0  0  0  0  0  0  0  0
    8.1226   -0.6174   18.4456 H   0  0  0  0  0  0  0  0  0  0  0  0
   12.6972    1.0723   24.8299 H   0  0  0  0  0  0  0  0  0  0  0  0
   11.3734   -2.0527   21.2520 H   0  0  0  0  0  0  0  0  0  0  0  0
    4.9694    1.6822   17.0291 H   0  0  0  0  0  0  0  0  0  0  0  0
  1  8  1  0
  1 16  2  0
  1 19  1  0
  2  4  1  0
  3 15  1  0
  3 18  2  0
  4  6  2  0
  4 17  1  0
  5  7  1  0
  5  9  2  0
  5 13  1  0
  6 16  1  0
  6 20  1  0
  7 21  1  6
  7 22  1  0
  7 23  1  0
  8 14  1  0
  8 17  2  0
  9 18  1  0
  9 24  1  0
 10 11  1  0
 10 12  2  0
 10 14  1  0
 11 13  1  0
 11 25  1  0
 13 15  2  0
 14 26  1  1
 14 27  1  0
 15 28  1  0
 16 29  1  0
 17 30  1  0
 18 31  1  0
M  END
$$$$
