LIG(A-306)
     RDKit          3D

 52 55  0  0  1  0  0  0  0  0999 V2000
   14.1029   -1.6691   21.3013 Cl  0  0  0  0  0  0  0  0  0  0  0  0
   12.9307   -0.8173   22.2734 C   0  0  0  0  0  0  0  0  0  0  0  0
   11.6028   -1.2076   22.2304 C   0  0  0  0  0  0  0  0  0  0  0  0
   13.3495    0.2188   23.0743 C   0  0  0  0  0  0  0  0  0  0  0  0
   12.4284    0.8556   23.8823 C   0  0  0  0  0  0  0  0  0  0  0  0
   11.0835    0.4903   23.8724 C   0  0  0  0  0  0  0  0  0  0  0  0
   10.1394    1.1992   24.8184 C   0  0  1  0  0  0  0  0  0  0  0  0
    8.7424    0.9508   24.4475 N   0  0  0  0  0  0  0  0  0  0  0  0
    7.6033    1.8816   25.0845 S   0  0  1  0  0  0  0  0  0  0  0  0
    6.3443    1.4113   24.6216 O   0  0  0  0  0  0  0  0  0  0  0  0
    7.8683    1.9897   26.4795 O   0  0  0  0  0  0  0  0  0  0  0  0
    7.9069    3.2967   24.4074 N   0  0  0  0  0  0  0  0  0  0  0  0
    7.7638    3.4666   22.9474 C   0  0  1  0  0  0  0  0  0  0  0  0
    6.7016    4.4314   22.6124 C   0  0  0  0  0  0  0  0  0  0  0  0
    5.8974    5.1822   22.3075 N   0  0  0  0  0  0  0  0  0  0  0  0
    7.8147    4.5057   25.2334 C   0  0  1  0  0  0  0  0  0  0  0  0
   10.6597   -0.5378   23.0144 C   0  0  0  0  0  0  0  0  0  0  0  0
    9.1788   -0.8631   22.8935 C   0  0  1  0  0  0  0  0  0  0  0  0
    8.4347   -0.4642   24.1685 C   0  0  1  0  0  0  0  0  0  0  0  0
    8.6075   -0.0723   21.7115 C   0  0  0  0  0  0  0  0  0  0  0  0
    9.1623    0.9348   21.2705 O   0  0  0  0  0  0  0  0  0  0  0  0
    7.4526   -0.5675   21.1966 N   0  0  0  0  0  0  0  0  0  0  0  0
    6.7155   -0.0787   20.0906 C   0  0  0  0  0  0  0  0  0  0  0  0
    5.5403    0.7050   20.3266 C   0  0  0  0  0  0  0  0  0  0  0  0
    4.9773    0.9180   21.6116 C   0  0  0  0  0  0  0  0  0  0  0  0
    3.8702    1.7027   21.7726 C   0  0  0  0  0  0  0  0  0  0  0  0
    3.2680    2.3116   20.6796 C   0  0  0  0  0  0  0  0  0  0  0  0
    3.7660    2.1326   19.4216 C   0  0  0  0  0  0  0  0  0  0  0  0
    4.9041    1.3179   19.2066 C   0  0  0  0  0  0  0  0  0  0  0  0
    5.4512    1.0740   17.9206 C   0  0  0  0  0  0  0  0  0  0  0  0
    6.5243    0.3252   17.6986 N   0  0  0  0  0  0  0  0  0  0  0  0
    7.1315   -0.2217   18.7636 C   0  0  0  0  0  0  0  0  0  0  0  0
   11.2976   -2.0254   21.5944 H   0  0  0  0  0  0  0  0  0  0  0  0
   14.3837    0.5300   23.0716 H   0  0  0  0  0  0  0  0  0  0  0  0
   12.7564    1.6517   24.5343 H   0  0  0  0  0  0  0  0  0  0  0  0
   10.3112    0.8319   25.8409 H   0  0  0  0  0  0  0  0  0  0  0  0
   10.3355    2.2808   24.7796 H   0  0  0  0  0  0  0  0  0  0  0  0
    8.7173    3.8290   22.5356 H   0  0  0  0  0  0  0  0  0  0  0  0
    7.5164    2.4936   22.4979 H   0  0  0  0  0  0  0  0  0  0  0  0
    8.0518    5.3879   24.6207 H   0  0  0  0  0  0  0  0  0  0  0  0
    6.7940    4.6001   25.6323 H   0  0  0  0  0  0  0  0  0  0  0  0
    8.5292    4.4356   26.0669 H   0  0  0  0  0  0  0  0  0  0  0  0
    9.0493   -1.9403   22.7125 H   0  0  0  0  0  0  0  0  0  0  0  0
    8.7682   -1.0919   25.0080 H   0  0  0  0  0  0  0  0  0  0  0  0
    7.3515   -0.5900   24.0243 H   0  0  0  0  0  0  0  0  0  0  0  0
    7.0777   -1.3743   21.6532 H   0  0  0  0  0  0  0  0  0  0  0  0
    5.4304    0.4531   22.4748 H   0  0  0  0  0  0  0  0  0  0  0  0
    3.4593    1.8509   22.7603 H   0  0  0  0  0  0  0  0  0  0  0  0
    2.3969    2.9329   20.8265 H   0  0  0  0  0  0  0  0  0  0  0  0
    3.2879    2.6166   18.5828 H   0  0  0  0  0  0  0  0  0  0  0  0
    4.9640    1.5257   17.0691 H   0  0  0  0  0  0  0  0  0  0  0  0
    8.0118   -0.8200   18.5807 H   0  0  0  0  0  0  0  0  0  0  0  0
  1  2  1  0
  2  3  2  0
  2  4  1  0
  3 17  1  0
  3 33  1  0
  4  5  2  0
  4 34  1  0
  5  6  1  0
  5 35  1  0
  6  7  1  0
  6 17  2  0
  7  8  1  0
  7 36  1  1
  7 37  1  0
  8  9  1  0
  8 19  1  0
  9 10  2  0
  9 11  2  0
  9 12  1  6
 12 13  1  0
 12 16  1  0
 13 14  1  0
 13 38  1  6
 13 39  1  0
 14 15  3  0
 16 40  1  6
 16 41  1  0
 16 42  1  0
 17 18  1  0
 18 19  1  0
 18 20  1  0
 18 43  1  6
 19 44  1  1
 19 45  1  0
 20 21  2  0
 20 22  1  0
 22 23  1  0
 22 46  1  0
 23 24  2  0
 23 32  1  0
 24 25  1  0
 24 29  1  0
 25 26  2  0
 25 47  1  0
 26 27  1  0
 26 48  1  0
 27 28  2  0
 27 49  1  0
 28 29  1  0
 28 50  1  0
 29 30  2  0
 30 31  1  0
 30 51  1  0
 31 32  2  0
 32 52  1  0
M  END
$$$$
