LIG(B-307)
     RDKit          3D

 72 74  0  0  1  0  0  0  0  0999 V2000
   -6.2144    1.4086  -18.1647 C   0  0  0  0  0  0  0  0  0  0  0  0
   -7.4907   -3.0264  -19.8954 C   0  0  1  0  0  0  0  0  0  0  0  0
   -9.0188   -0.6070  -21.8136 C   0  0  0  0  0  0  0  0  0  0  0  0
  -10.0158    2.2038  -22.1274 C   0  0  0  0  0  0  0  0  0  0  0  0
  -12.0013    4.9178  -22.8097 C   0  0  0  0  0  0  0  0  0  0  0  0
   -5.4287    0.9267  -20.3769 C   0  0  1  0  0  0  0  0  0  0  0  0
   -4.8559    2.2431  -19.8924 C   0  0  1  0  0  0  0  0  0  0  0  0
  -11.0897    0.9265  -24.0499 C   0  0  1  0  0  0  0  0  0  0  0  0
   -6.6107    0.6728  -19.4306 C   0  0  1  0  0  0  0  0  0  0  0  0
  -10.4546   -0.2076  -21.9671 C   0  0  2  0  0  0  0  0  0  0  0  0
  -11.6068   -0.4678  -24.0819 C   0  0  1  0  0  0  0  0  0  0  0  0
  -11.2114   -1.1681  -22.8271 C   0  0  2  0  0  0  0  0  0  0  0  0
  -12.6891   -1.0366  -23.1783 C   0  0  1  0  0  0  0  0  0  0  0  0
  -13.5153   -0.1014  -22.3508 C   0  0  1  0  0  0  0  0  0  0  0  0
  -13.3915   -2.2527  -23.6573 C   0  0  1  0  0  0  0  0  0  0  0  0
   -8.7503    5.1889  -24.0927 C   0  0  1  0  0  0  0  0  0  0  0  0
   -7.7676    2.9479  -23.7926 C   0  0  1  0  0  0  0  0  0  0  0  0
   -7.9565    4.5167  -21.8991 C   0  0  1  0  0  0  0  0  0  0  0  0
   -6.8093   -0.7885  -19.0809 C   0  0  1  0  0  0  0  0  0  0  0  0
   -7.3790   -1.5676  -20.2499 C   0  0  2  0  0  0  0  0  0  0  0  0
  -10.0273    3.4568  -22.9588 C   0  0  2  0  0  0  0  0  0  0  0  0
  -12.8166    5.7520  -21.8665 C   0  0  2  0  0  0  0  0  0  0  0  0
   -8.6290    4.0113  -23.1542 C   0  0  1  0  0  0  0  0  0  0  0  0
   -6.3974   -3.6916  -19.7168 N   0  0  1  0  0  0  0  0  0  0  0  0
   -5.1169    2.2104  -18.4713 N   0  0  0  0  0  0  0  0  0  0  0  0
  -10.4318    1.0432  -22.7356 N   0  0  0  0  0  0  0  0  0  0  0  0
   -8.7323   -1.1501  -20.5778 N   0  0  0  0  0  0  0  0  0  0  0  0
  -10.8934    4.3451  -22.2189 N   0  0  0  0  0  0  0  0  0  0  0  0
   -6.8080    1.3211  -17.0984 O   0  0  0  0  0  0  0  0  0  0  0  0
   -8.2262   -0.4491  -22.7340 O   0  0  0  0  0  0  0  0  0  0  0  0
   -9.6378    2.2266  -20.9685 O   0  0  0  0  0  0  0  0  0  0  0  0
  -12.3041    4.8442  -23.9933 O   0  0  0  0  0  0  0  0  0  0  0  0
  -12.8568    5.3545  -20.5740 F   0  0  0  0  0  0  0  0  0  0  0  0
  -14.1174    5.7183  -22.2417 F   0  0  0  0  0  0  0  0  0  0  0  0
  -12.3729    7.0388  -21.8444 F   0  0  0  0  0  0  0  0  0  0  0  0
   -8.0706   -3.0932  -18.9631 H   0  0  0  0  0  0  0  0  0  0  0  0
   -8.0447   -3.5192  -20.7079 H   0  0  0  0  0  0  0  0  0  0  0  0
   -5.7712    1.0080  -21.4190 H   0  0  0  0  0  0  0  0  0  0  0  0
   -4.6830    0.1219  -20.2977 H   0  0  0  0  0  0  0  0  0  0  0  0
   -3.7762    2.3023  -20.0944 H   0  0  0  0  0  0  0  0  0  0  0  0
   -5.3651    3.0943  -20.3680 H   0  0  0  0  0  0  0  0  0  0  0  0
  -10.3676    1.0926  -24.8629 H   0  0  0  0  0  0  0  0  0  0  0  0
  -11.9140    1.6495  -24.1382 H   0  0  0  0  0  0  0  0  0  0  0  0
   -7.5338    1.0981  -19.8511 H   0  0  0  0  0  0  0  0  0  0  0  0
  -10.9402   -0.0768  -20.9888 H   0  0  0  0  0  0  0  0  0  0  0  0
  -11.4343   -1.0230  -25.0157 H   0  0  0  0  0  0  0  0  0  0  0  0
  -10.7776   -2.1727  -22.9398 H   0  0  0  0  0  0  0  0  0  0  0  0
  -14.2438   -0.6781  -21.7620 H   0  0  0  0  0  0  0  0  0  0  0  0
  -12.8599    0.4634  -21.6715 H   0  0  0  0  0  0  0  0  0  0  0  0
  -14.0491    0.5980  -23.0110 H   0  0  0  0  0  0  0  0  0  0  0  0
  -14.1441   -2.5581  -22.9155 H   0  0  0  0  0  0  0  0  0  0  0  0
  -13.8874   -2.0362  -24.6150 H   0  0  0  0  0  0  0  0  0  0  0  0
  -12.6634   -3.0654  -23.7968 H   0  0  0  0  0  0  0  0  0  0  0  0
   -9.3775    5.9647  -23.6293 H   0  0  0  0  0  0  0  0  0  0  0  0
   -7.7504    5.5994  -24.2968 H   0  0  0  0  0  0  0  0  0  0  0  0
   -9.2111    4.8599  -25.0358 H   0  0  0  0  0  0  0  0  0  0  0  0
   -7.6781    2.0895  -23.1106 H   0  0  0  0  0  0  0  0  0  0  0  0
   -8.2289    2.6201  -24.7359 H   0  0  0  0  0  0  0  0  0  0  0  0
   -6.7682    3.3596  -23.9969 H   0  0  0  0  0  0  0  0  0  0  0  0
   -7.8464    3.6891  -21.1828 H   0  0  0  0  0  0  0  0  0  0  0  0
   -6.9637    4.9176  -22.1513 H   0  0  0  0  0  0  0  0  0  0  0  0
   -8.5695    5.3116  -21.4494 H   0  0  0  0  0  0  0  0  0  0  0  0
   -5.8389   -1.2239  -18.8002 H   0  0  0  0  0  0  0  0  0  0  0  0
   -7.5035   -0.8613  -18.2307 H   0  0  0  0  0  0  0  0  0  0  0  0
   -6.7211   -1.4499  -21.1235 H   0  0  0  0  0  0  0  0  0  0  0  0
  -10.4664    3.2348  -23.9426 H   0  0  0  0  0  0  0  0  0  0  0  0
   -6.6147   -4.6042  -19.3705 H   0  0  0  0  0  0  0  0  0  0  0  0
   -5.9106   -3.7724  -20.5865 H   0  0  0  0  0  0  0  0  0  0  0  0
   -5.8203   -3.2129  -19.0551 H   0  0  0  0  0  0  0  0  0  0  0  0
   -4.5753    2.7036  -17.7905 H   0  0  0  0  0  0  0  0  0  0  0  0
   -9.4617   -1.2574  -19.9021 H   0  0  0  0  0  0  0  0  0  0  0  0
  -10.6866    4.5485  -21.2619 H   0  0  0  0  0  0  0  0  0  0  0  0
  1  9  1  0
  1 25  1  0
  1 29  2  0
  2 20  1  0
  2 24  1  0
  2 36  1  1
  2 37  1  0
  3 10  1  0
  3 27  1  0
  3 30  2  0
  4 21  1  0
  4 26  1  0
  4 31  2  0
  5 22  1  0
  5 28  1  0
  5 32  2  0
  6  7  1  0
  6  9  1  0
  6 38  1  6
  6 39  1  0
  7 25  1  0
  7 40  1  1
  7 41  1  0
  8 11  1  0
  8 26  1  0
  8 42  1  6
  8 43  1  0
  9 19  1  0
  9 44  1  6
 10 12  1  0
 10 26  1  0
 10 45  1  1
 11 12  1  0
 13 11  1  6
 11 46  1  6
 12 13  1  0
 12 47  1  6
 13 14  1  0
 13 15  1  0
 14 48  1  1
 14 49  1  0
 14 50  1  0
 15 51  1  1
 15 52  1  0
 15 53  1  0
 16 23  1  0
 16 54  1  1
 16 55  1  0
 16 56  1  0
 17 23  1  0
 17 57  1  1
 17 58  1  0
 17 59  1  0
 18 23  1  0
 18 60  1  1
 18 61  1  0
 18 62  1  0
 19 20  1  0
 19 63  1  1
 19 64  1  0
 20 27  1  0
 20 65  1  6
 23 21  1  1
 21 28  1  0
 21 66  1  6
 22 33  1  1
 22 34  1  0
 22 35  1  0
 24 67  1  1
 24 68  1  0
 24 69  1  0
 25 70  1  0
 27 71  1  0
 28 72  1  0
M  CHG  1  24   1
M  END
$$$$
