LIG(A-306)
     RDKit          3D

 41 44  0  0  1  0  0  0  0  0999 V2000
   -9.6029    0.4623  -20.9774 O   0  0  0  0  0  0  0  0  0  0  0  0
   -9.0053   -0.5422  -21.3816 C   0  0  0  0  0  0  0  0  0  0  0  0
   -9.5182   -1.3789  -22.5548 C   0  0  2  0  0  0  0  0  0  0  0  0
   -8.8030   -0.9803  -23.8512 C   0  0  1  0  0  0  0  0  0  0  0  0
   -9.0765    0.4254  -24.1689 N   0  0  1  0  0  0  0  0  0  0  0  0
  -10.4956    0.6699  -24.4382 C   0  0  1  0  0  0  0  0  0  0  0  0
  -10.9988   -1.0911  -22.6782 C   0  0  0  0  0  0  0  0  0  0  0  0
  -11.4516   -0.0915  -23.5533 C   0  0  0  0  0  0  0  0  0  0  0  0
  -12.8204    0.1618  -23.6414 C   0  0  0  0  0  0  0  0  0  0  0  0
  -13.7288   -0.5517  -22.8793 C   0  0  0  0  0  0  0  0  0  0  0  0
  -11.9189   -1.8131  -21.9187 C   0  0  0  0  0  0  0  0  0  0  0  0
  -13.2623   -1.5160  -22.0142 C   0  0  0  0  0  0  0  0  0  0  0  0
  -14.3777   -2.3066  -20.9363 Cl  0  0  0  0  0  0  0  0  0  0  0  0
   -7.8389   -0.9806  -20.8463 N   0  0  0  0  0  0  0  0  0  0  0  0
   -7.1165   -0.4063  -19.7810 C   0  0  0  0  0  0  0  0  0  0  0  0
   -6.0394    0.4854  -20.0844 C   0  0  0  0  0  0  0  0  0  0  0  0
   -5.5728    0.7440  -21.3992 C   0  0  0  0  0  0  0  0  0  0  0  0
   -4.5481    1.6208  -21.6225 C   0  0  0  0  0  0  0  0  0  0  0  0
   -3.9377    2.2801  -20.5637 C   0  0  0  0  0  0  0  0  0  0  0  0
   -4.3501    2.0638  -19.2786 C   0  0  0  0  0  0  0  0  0  0  0  0
   -5.4073    1.1620  -19.0032 C   0  0  0  0  0  0  0  0  0  0  0  0
   -5.8755    0.8933  -17.6932 C   0  0  0  0  0  0  0  0  0  0  0  0
   -6.8647    0.0560  -17.4123 N   0  0  0  0  0  0  0  0  0  0  0  0
   -7.4578   -0.5689  -18.4381 C   0  0  0  0  0  0  0  0  0  0  0  0
   -9.3558   -2.4478  -22.3518 H   0  0  0  0  0  0  0  0  0  0  0  0
   -7.7191   -1.1204  -23.7261 H   0  0  0  0  0  0  0  0  0  0  0  0
   -9.1622   -1.6154  -24.6744 H   0  0  0  0  0  0  0  0  0  0  0  0
   -8.7943    0.9908  -23.3938 H   0  0  0  0  0  0  0  0  0  0  0  0
   -8.5472    0.6808  -24.9780 H   0  0  0  0  0  0  0  0  0  0  0  0
  -10.6885    1.7445  -24.3042 H   0  0  0  0  0  0  0  0  0  0  0  0
  -10.6986    0.3884  -25.4820 H   0  0  0  0  0  0  0  0  0  0  0  0
  -13.1770    0.9270  -24.3151 H   0  0  0  0  0  0  0  0  0  0  0  0
  -14.7876   -0.3551  -22.9619 H   0  0  0  0  0  0  0  0  0  0  0  0
  -11.5818   -2.5998  -21.2601 H   0  0  0  0  0  0  0  0  0  0  0  0
   -7.4466   -1.8052  -21.2539 H   0  0  0  0  0  0  0  0  0  0  0  0
   -6.0342    0.2406  -22.2360 H   0  0  0  0  0  0  0  0  0  0  0  0
   -4.2100    1.8025  -22.6320 H   0  0  0  0  0  0  0  0  0  0  0  0
   -3.1298    2.9702  -20.7574 H   0  0  0  0  0  0  0  0  0  0  0  0
   -3.8657    2.5849  -18.4660 H   0  0  0  0  0  0  0  0  0  0  0  0
   -5.3960    1.4031  -16.8707 H   0  0  0  0  0  0  0  0  0  0  0  0
   -8.2624   -1.2514  -18.2077 H   0  0  0  0  0  0  0  0  0  0  0  0
  1  2  2  0
  2  3  1  0
  2 14  1  0
  3  4  1  0
  3  7  1  0
  3 25  1  1
  4  5  1  0
  4 26  1  1
  4 27  1  0
  5  6  1  0
  5 28  1  1
  5 29  1  0
  6  8  1  0
  6 30  1  6
  6 31  1  0
  7  8  2  0
  7 11  1  0
  8  9  1  0
  9 10  2  0
  9 32  1  0
 10 12  1  0
 10 33  1  0
 11 12  2  0
 11 34  1  0
 12 13  1  0
 14 15  1  0
 14 35  1  0
 15 16  2  0
 15 24  1  0
 16 17  1  0
 16 21  1  0
 17 18  2  0
 17 36  1  0
 18 19  1  0
 18 37  1  0
 19 20  2  0
 19 38  1  0
 20 21  1  0
 20 39  1  0
 21 22  2  0
 22 23  1  0
 22 40  1  0
 23 24  2  0
 24 41  1  0
M  CHG  1   5   1
M  END
$$$$
