LIG(A-306)
     RDKit          3D

 39 42  0  0  1  0  0  0  0  0999 V2000
    9.1023    1.1107   21.1417 O   0  0  0  0  0  0  0  0  0  0  0  0
    8.6181    0.0359   21.5040 C   0  0  0  0  0  0  0  0  0  0  0  0
    9.2074   -0.7709   22.6633 C   0  0  2  0  0  0  0  0  0  0  0  0
    8.4023   -0.5783   23.9542 C   0  0  1  0  0  0  0  0  0  0  0  0
    8.4257    0.8758   24.3995 C   0  0  1  0  0  0  0  0  0  0  0  0
   10.0864    1.4448   24.8253 S   0  0  0  0  0  0  0  0  0  0  0  0
   10.6777   -0.4519   22.8538 C   0  0  0  0  0  0  0  0  0  0  0  0
   11.1253    0.5521   23.7220 C   0  0  0  0  0  0  0  0  0  0  0  0
   12.4816    0.8710   23.8005 C   0  0  0  0  0  0  0  0  0  0  0  0
   13.4011    0.1861   23.0269 C   0  0  0  0  0  0  0  0  0  0  0  0
   11.6232   -1.1476   22.1032 C   0  0  0  0  0  0  0  0  0  0  0  0
   12.9584   -0.8086   22.1856 C   0  0  0  0  0  0  0  0  0  0  0  0
   14.0961   -1.5988   21.1276 Cl  0  0  0  0  0  0  0  0  0  0  0  0
    7.5364   -0.5328   20.9150 N   0  0  0  0  0  0  0  0  0  0  0  0
    6.7618   -0.0299   19.8448 C   0  0  0  0  0  0  0  0  0  0  0  0
    5.6318    0.7952   20.1406 C   0  0  0  0  0  0  0  0  0  0  0  0
    5.1735    1.0609   21.4559 C   0  0  0  0  0  0  0  0  0  0  0  0
    4.1054    1.8867   21.6747 C   0  0  0  0  0  0  0  0  0  0  0  0
    3.4437    2.4829   20.6118 C   0  0  0  0  0  0  0  0  0  0  0  0
    3.8439    2.2553   19.3272 C   0  0  0  0  0  0  0  0  0  0  0  0
    4.9450    1.4073   19.0556 C   0  0  0  0  0  0  0  0  0  0  0  0
    5.4163    1.1477   17.7472 C   0  0  0  0  0  0  0  0  0  0  0  0
    6.4532    0.3724   17.4701 N   0  0  0  0  0  0  0  0  0  0  0  0
    7.0959   -0.1961   18.4978 C   0  0  0  0  0  0  0  0  0  0  0  0
    9.1345   -1.8340   22.3904 H   0  0  0  0  0  0  0  0  0  0  0  0
    7.3604   -0.8835   23.7772 H   0  0  0  0  0  0  0  0  0  0  0  0
    8.8381   -1.2043   24.7468 H   0  0  0  0  0  0  0  0  0  0  0  0
    8.0379    1.5009   23.5818 H   0  0  0  0  0  0  0  0  0  0  0  0
    7.7788    0.9843   25.2825 H   0  0  0  0  0  0  0  0  0  0  0  0
   12.8137    1.6538   24.4664 H   0  0  0  0  0  0  0  0  0  0  0  0
   14.4520    0.4288   23.0823 H   0  0  0  0  0  0  0  0  0  0  0  0
   11.3107   -1.9535   21.4557 H   0  0  0  0  0  0  0  0  0  0  0  0
    7.2516   -1.4177   21.2838 H   0  0  0  0  0  0  0  0  0  0  0  0
    5.6748    0.6048   22.2968 H   0  0  0  0  0  0  0  0  0  0  0  0
    3.7742    2.0763   22.6850 H   0  0  0  0  0  0  0  0  0  0  0  0
    2.6033    3.1338   20.8027 H   0  0  0  0  0  0  0  0  0  0  0  0
    3.3164    2.7259   18.5108 H   0  0  0  0  0  0  0  0  0  0  0  0
    4.8971    1.6116   16.9216 H   0  0  0  0  0  0  0  0  0  0  0  0
    7.9378   -0.8324   18.2683 H   0  0  0  0  0  0  0  0  0  0  0  0
  1  2  2  0
  2  3  1  0
  2 14  1  0
  3  4  1  0
  3  7  1  0
  3 25  1  6
  4  5  1  0
  4 26  1  6
  4 27  1  0
  5  6  1  0
  5 28  1  6
  5 29  1  0
  6  8  1  0
  7  8  2  0
  7 11  1  0
  8  9  1  0
  9 10  2  0
  9 30  1  0
 10 12  1  0
 10 31  1  0
 11 12  2  0
 11 32  1  0
 12 13  1  0
 14 15  1  0
 14 33  1  0
 15 16  2  0
 15 24  1  0
 16 17  1  0
 16 21  1  0
 17 18  2  0
 17 34  1  0
 18 19  1  0
 18 35  1  0
 19 20  2  0
 19 36  1  0
 20 21  1  0
 20 37  1  0
 21 22  2  0
 22 23  1  0
 22 38  1  0
 23 24  2  0
 24 39  1  0
M  END
$$$$
