
     RDKit          3D

 67 72  0  0  0  0  0  0  0  0999 V2000
    5.0987    6.4164   23.5146 C   0  0  0  0  0  0  0  0  0  0  0  0
    4.8737    5.1776   22.7417 N   0  0  0  0  0  0  0  0  0  0  0  0
    6.1189    4.3801   22.5092 C   0  0  0  0  0  0  0  0  0  0  0  0
    6.6584    3.7091   23.7866 C   0  0  0  0  0  0  0  0  0  0  0  0
    7.8121    2.8760   23.4905 N   0  0  0  0  0  0  0  0  0  0  0  0
    7.7462    1.4274   23.6043 C   0  0  0  0  0  0  0  0  0  0  0  0
    8.4951    0.7235   22.4365 C   0  0  2  0  0  0  0  0  0  0  0  0
    7.6796    0.9725   21.1426 C   0  0  0  0  0  0  0  0  0  0  0  0
    7.6460    1.9809   20.4677 O   0  0  0  0  0  0  0  0  0  0  0  0
    6.9305   -0.1527   20.8697 N   0  0  0  0  0  0  0  0  0  0  0  0
    5.9088   -0.1090   19.8862 C   0  0  0  0  0  0  0  0  0  0  0  0
    6.0678   -0.7762   18.6989 C   0  0  0  0  0  0  0  0  0  0  0  0
    5.2342   -0.6611   17.6369 N   0  0  0  0  0  0  0  0  0  0  0  0
    4.1822    0.1129   17.7739 C   0  0  0  0  0  0  0  0  0  0  0  0
    3.8518    0.7983   18.9770 C   0  0  0  0  0  0  0  0  0  0  0  0
    2.6767    1.5880   19.0944 C   0  0  0  0  0  0  0  0  0  0  0  0
    2.3327    2.1605   20.2881 C   0  0  0  0  0  0  0  0  0  0  0  0
    3.1714    1.9977   21.4116 C   0  0  0  0  0  0  0  0  0  0  0  0
    4.3391    1.2824   21.3115 C   0  0  0  0  0  0  0  0  0  0  0  0
    4.7199    0.6649   20.0846 C   0  0  0  0  0  0  0  0  0  0  0  0
    7.1568   -1.2443   21.7990 C   0  0  0  0  0  0  0  0  0  0  0  0
    8.4500   -0.8232   22.5224 C   0  0  2  0  0  0  0  0  0  0  0  0
    8.6105   -1.4658   23.9099 C   0  0  0  0  0  0  0  0  0  0  0  0
    9.7833   -1.0510   24.6658 N   0  0  0  0  0  0  0  0  0  0  0  0
   11.0395   -1.4024   24.3085 C   0  0  0  0  0  0  0  0  0  0  0  0
   12.0508   -0.8542   25.0218 N   0  0  0  0  0  0  0  0  0  0  0  0
   13.2572   -1.1294   24.5447 C   0  0  0  0  0  0  0  0  0  0  0  0
   13.5352   -1.8748   23.4741 N   0  0  0  0  0  0  0  0  0  0  0  0
   12.4569   -2.3312   22.8360 C   0  0  0  0  0  0  0  0  0  0  0  0
   11.2011   -2.2245   23.2551 N   0  0  0  0  0  0  0  0  0  0  0  0
    9.8895    1.3181   22.3602 C   0  0  0  0  0  0  0  0  0  0  0  0
   11.0010    0.5866   21.9267 C   0  0  0  0  0  0  0  0  0  0  0  0
   12.2477    1.1953   21.8662 C   0  0  0  0  0  0  0  0  0  0  0  0
   13.6514    0.2783   21.4245 Cl  0  0  0  0  0  0  0  0  0  0  0  0
   12.4310    2.5500   22.1344 C   0  0  0  0  0  0  0  0  0  0  0  0
   11.3221    3.2790   22.4900 C   0  0  0  0  0  0  0  0  0  0  0  0
   10.0832    2.6717   22.6611 C   0  0  0  0  0  0  0  0  0  0  0  0
    8.9716    3.5255   23.1850 C   0  0  0  0  0  0  0  0  0  0  0  0
    9.0945    4.7429   23.3135 O   0  0  0  0  0  0  0  0  0  0  0  0
    4.1878    7.0105   23.5424 H   0  0  0  0  0  0  0  0  0  0  0  0
    5.4042    6.1950   24.5384 H   0  0  0  0  0  0  0  0  0  0  0  0
    5.8930    7.0086   23.0538 H   0  0  0  0  0  0  0  0  0  0  0  0
    4.4509    5.4372   21.8252 H   0  0  0  0  0  0  0  0  0  0  0  0
    4.2012    4.5699   23.2687 H   0  0  0  0  0  0  0  0  0  0  0  0
    6.8915    5.0386   22.1104 H   0  0  0  0  0  0  0  0  0  0  0  0
    5.8931    3.6280   21.7557 H   0  0  0  0  0  0  0  0  0  0  0  0
    5.8920    3.0729   24.2479 H   0  0  0  0  0  0  0  0  0  0  0  0
    6.9778    4.4611   24.5190 H   0  0  0  0  0  0  0  0  0  0  0  0
    8.1765    1.1076   24.5589 H   0  0  0  0  0  0  0  0  0  0  0  0
    6.6985    1.1118   23.6130 H   0  0  0  0  0  0  0  0  0  0  0  0
    6.9293   -1.4280   18.5542 H   0  0  0  0  0  0  0  0  0  0  0  0
    3.5134    0.2051   16.9160 H   0  0  0  0  0  0  0  0  0  0  0  0
    2.0629    1.7363   18.2129 H   0  0  0  0  0  0  0  0  0  0  0  0
    1.4173    2.7390   20.3746 H   0  0  0  0  0  0  0  0  0  0  0  0
    2.8908    2.4440   22.3616 H   0  0  0  0  0  0  0  0  0  0  0  0
    4.9798    1.1818   22.1814 H   0  0  0  0  0  0  0  0  0  0  0  0
    7.2792   -2.1925   21.2661 H   0  0  0  0  0  0  0  0  0  0  0  0
    6.3220   -1.3641   22.5061 H   0  0  0  0  0  0  0  0  0  0  0  0
    9.2790   -1.1657   21.9018 H   0  0  0  0  0  0  0  0  0  0  0  0
    7.7268   -1.2409   24.5160 H   0  0  0  0  0  0  0  0  0  0  0  0
    8.6639   -2.5484   23.7856 H   0  0  0  0  0  0  0  0  0  0  0  0
    9.7242   -0.2091   25.2225 H   0  0  0  0  0  0  0  0  0  0  0  0
   14.1085   -0.6858   25.0581 H   0  0  0  0  0  0  0  0  0  0  0  0
   12.6224   -2.8138   21.8727 H   0  0  0  0  0  0  0  0  0  0  0  0
   10.9161   -0.4494   21.6296 H   0  0  0  0  0  0  0  0  0  0  0  0
   13.4185    3.0021   22.0857 H   0  0  0  0  0  0  0  0  0  0  0  0
   11.3914    4.3407   22.6742 H   0  0  0  0  0  0  0  0  0  0  0  0
  1  2  1  0
  2  3  1  0
  3  4  1  0
  4  5  1  0
  5  6  1  0
  7  6  1  1
  7  8  1  0
  8  9  2  0
  8 10  1  0
 10 11  1  0
 11 12  2  0
 12 13  1  0
 13 14  2  0
 14 15  1  0
 15 16  2  0
 16 17  1  0
 17 18  2  0
 18 19  1  0
 19 20  2  0
 10 21  1  0
 21 22  1  0
 22 23  1  0
 23 24  1  0
 24 25  1  0
 25 26  2  0
 26 27  1  0
 27 28  2  0
 28 29  1  0
 29 30  2  0
  7 31  1  0
 31 32  2  0
 32 33  1  0
 33 34  1  0
 33 35  2  0
 35 36  1  0
 36 37  2  0
 37 38  1  0
 38 39  2  0
 38  5  1  0
 22  7  1  0
 30 25  1  0
 37 31  1  0
 20 11  1  0
 20 15  1  0
  1 40  1  0
  1 41  1  0
  1 42  1  0
  2 43  1  0
  2 44  1  0
  3 45  1  0
  3 46  1  0
  4 47  1  0
  4 48  1  0
  6 49  1  0
  6 50  1  0
 12 51  1  0
 14 52  1  0
 16 53  1  0
 17 54  1  0
 18 55  1  0
 19 56  1  0
 21 57  1  0
 21 58  1  0
 22 59  1  6
 23 60  1  0
 23 61  1  0
 24 62  1  0
 27 63  1  0
 29 64  1  0
 32 65  1  0
 35 66  1  0
 36 67  1  0
M  CHG  1   2   1
M  END
$$$$
