
     RDKit          3D

 56 60  0  0  0  0  0  0  0  0999 V2000
   14.1425    2.0396   22.0634 C   0  0  0  0  0  0  0  0  0  0  0  0
   12.7860    2.3929   22.1973 N   0  0  0  0  0  0  0  0  0  0  0  0
   12.4477    3.2132   21.0930 C   0  0  0  0  0  0  0  0  0  0  0  0
   13.0444    4.3586   20.9133 O   0  0  0  0  0  0  0  0  0  0  0  0
   10.8461    3.4507   21.1283 C   0  0  0  0  0  0  0  0  0  0  0  0
   10.0994    2.6997   22.1183 N   0  0  0  0  0  0  0  0  0  0  0  0
    9.9772    1.2427   22.1602 C   0  0  0  0  0  0  0  0  0  0  0  0
    8.5203    0.7572   22.3648 C   0  0  1  0  0  0  0  0  0  0  0  0
    7.7034    0.9686   21.0730 C   0  0  0  0  0  0  0  0  0  0  0  0
    7.7139    1.9380   20.3491 O   0  0  0  0  0  0  0  0  0  0  0  0
    6.9303   -0.1481   20.8519 N   0  0  0  0  0  0  0  0  0  0  0  0
    5.9091   -0.1132   19.8735 C   0  0  0  0  0  0  0  0  0  0  0  0
    6.0723   -0.7757   18.6860 C   0  0  0  0  0  0  0  0  0  0  0  0
    5.2418   -0.6518   17.6239 N   0  0  0  0  0  0  0  0  0  0  0  0
    4.1927    0.1257   17.7663 C   0  0  0  0  0  0  0  0  0  0  0  0
    3.8586    0.7961   18.9780 C   0  0  0  0  0  0  0  0  0  0  0  0
    2.6893    1.5926   19.0983 C   0  0  0  0  0  0  0  0  0  0  0  0
    2.3601    2.1639   20.2961 C   0  0  0  0  0  0  0  0  0  0  0  0
    3.1927    1.9816   21.4242 C   0  0  0  0  0  0  0  0  0  0  0  0
    4.3517    1.2503   21.3280 C   0  0  0  0  0  0  0  0  0  0  0  0
    4.7215    0.6535   20.0853 C   0  0  0  0  0  0  0  0  0  0  0  0
    7.1492   -1.2303   21.7809 C   0  0  0  0  0  0  0  0  0  0  0  0
    8.4170   -0.7985   22.5591 C   0  0  1  0  0  0  0  0  0  0  0  0
    9.6275   -1.6019   22.0533 C   0  0  0  0  0  0  0  0  0  0  0  0
    7.9368    1.5524   23.5351 C   0  0  0  0  0  0  0  0  0  0  0  0
    6.8779    1.0610   24.3074 C   0  0  0  0  0  0  0  0  0  0  0  0
    6.4115    1.8028   25.3776 C   0  0  0  0  0  0  0  0  0  0  0  0
    5.4369    1.2959   26.1511 F   0  0  0  0  0  0  0  0  0  0  0  0
    6.8966    3.0643   25.6986 C   0  0  0  0  0  0  0  0  0  0  0  0
    7.8959    3.5761   24.9041 C   0  0  0  0  0  0  0  0  0  0  0  0
    8.4243    2.8230   23.8623 C   0  0  0  0  0  0  0  0  0  0  0  0
    9.4862    3.4810   23.0588 C   0  0  0  0  0  0  0  0  0  0  0  0
    9.7526    4.6698   23.2074 O   0  0  0  0  0  0  0  0  0  0  0  0
   14.7770    2.8373   21.6476 H   0  0  0  0  0  0  0  0  0  0  0  0
   14.5998    1.6899   22.9923 H   0  0  0  0  0  0  0  0  0  0  0  0
   14.2504    1.1710   21.3917 H   0  0  0  0  0  0  0  0  0  0  0  0
   12.5636    2.5549   20.1658 H   0  0  0  0  0  0  0  0  0  0  0  0
   10.3747    3.3403   20.1480 H   0  0  0  0  0  0  0  0  0  0  0  0
   10.7367    4.4952   21.4130 H   0  0  0  0  0  0  0  0  0  0  0  0
   10.5747    0.8360   22.9850 H   0  0  0  0  0  0  0  0  0  0  0  0
   10.3388    0.7687   21.2576 H   0  0  0  0  0  0  0  0  0  0  0  0
    6.9311   -1.4299   18.5410 H   0  0  0  0  0  0  0  0  0  0  0  0
    3.5296    0.2347   16.9065 H   0  0  0  0  0  0  0  0  0  0  0  0
    2.0712    1.7458   18.2195 H   0  0  0  0  0  0  0  0  0  0  0  0
    1.4570    2.7635   20.3875 H   0  0  0  0  0  0  0  0  0  0  0  0
    2.9143    2.4359   22.3703 H   0  0  0  0  0  0  0  0  0  0  0  0
    4.9944    1.1262   22.1995 H   0  0  0  0  0  0  0  0  0  0  0  0
    6.2841   -1.3791   22.4417 H   0  0  0  0  0  0  0  0  0  0  0  0
    7.3060   -2.1711   21.2418 H   0  0  0  0  0  0  0  0  0  0  0  0
    8.3175   -1.0103   23.6297 H   0  0  0  0  0  0  0  0  0  0  0  0
    9.4792   -2.6700   22.2492 H   0  0  0  0  0  0  0  0  0  0  0  0
    9.7658   -1.4776   20.9718 H   0  0  0  0  0  0  0  0  0  0  0  0
   10.5556   -1.3058   22.5530 H   0  0  0  0  0  0  0  0  0  0  0  0
    6.4150    0.1003   24.1099 H   0  0  0  0  0  0  0  0  0  0  0  0
    6.4987    3.6190   26.5375 H   0  0  0  0  0  0  0  0  0  0  0  0
    8.3085    4.5703   25.0449 H   0  0  0  0  0  0  0  0  0  0  0  0
  1  2  1  0
  2  3  1  0
  3  4  2  0
  3  5  1  0
  5  6  1  0
  6  7  1  0
  8  7  1  1
  8  9  1  0
  9 10  2  0
  9 11  1  0
 11 12  1  0
 12 13  2  0
 13 14  1  0
 14 15  2  0
 15 16  1  0
 16 17  2  0
 17 18  1  0
 18 19  2  0
 19 20  1  0
 20 21  2  0
 11 22  1  0
 22 23  1  0
 23 24  1  0
  8 25  1  0
 25 26  2  0
 26 27  1  0
 27 28  1  0
 27 29  2  0
 29 30  1  0
 30 31  2  0
 31 32  1  0
 32 33  2  0
 32  6  1  0
 23  8  1  0
 31 25  1  0
 21 12  1  0
 21 16  1  0
  1 34  1  0
  1 35  1  0
  1 36  1  0
  2 37  1  0
  5 38  1  0
  5 39  1  0
  7 40  1  0
  7 41  1  0
 13 42  1  0
 15 43  1  0
 17 44  1  0
 18 45  1  0
 19 46  1  0
 20 47  1  0
 22 48  1  0
 22 49  1  0
 23 50  1  6
 24 51  1  0
 24 52  1  0
 24 53  1  0
 26 54  1  0
 29 55  1  0
 30 56  1  0
M  END
$$$$
