
     RDKit          3D

 47 50  0  0  0  0  0  0  0  0999 V2000
    8.1754    1.0444   20.1122 O   0  0  0  0  0  0  0  0  0  0  0  0
    7.5957    0.5768   21.0787 C   0  0  0  0  0  0  0  0  0  0  0  0
    6.7362   -0.6858   20.9415 C   0  0  0  0  0  0  0  0  0  0  0  0
    5.7470   -0.4343   19.8398 C   0  0  0  0  0  0  0  0  0  0  0  0
    6.0093   -0.8649   18.5682 C   0  0  0  0  0  0  0  0  0  0  0  0
    5.2737   -0.5623   17.4704 N   0  0  0  0  0  0  0  0  0  0  0  0
    4.2222    0.1995   17.6581 C   0  0  0  0  0  0  0  0  0  0  0  0
    3.8355    0.7345   18.9172 C   0  0  0  0  0  0  0  0  0  0  0  0
    2.7193    1.5986   19.0576 C   0  0  0  0  0  0  0  0  0  0  0  0
    2.4184    2.1576   20.2692 C   0  0  0  0  0  0  0  0  0  0  0  0
    3.2206    1.8742   21.3979 C   0  0  0  0  0  0  0  0  0  0  0  0
    4.2925    1.0235   21.2930 C   0  0  0  0  0  0  0  0  0  0  0  0
    4.6280    0.4254   20.0453 C   0  0  0  0  0  0  0  0  0  0  0  0
    7.6290    1.1868   22.2989 N   0  0  0  0  0  0  0  0  0  0  0  0
    7.5317    0.5063   23.5779 C   0  0  0  0  0  0  0  0  0  0  0  0
    8.1342    1.4943   24.5957 C   0  0  2  0  0  0  0  0  0  0  0  0
    7.4389    1.3718   25.9354 C   0  0  0  0  0  0  0  0  0  0  0  0
    7.7662    2.4163   26.7814 F   0  0  0  0  0  0  0  0  0  0  0  0
    8.1632    2.9472   23.9079 C   0  0  0  0  0  0  0  0  0  0  0  0
    9.4099    3.5284   24.0509 C   0  0  0  0  0  0  0  0  0  0  0  0
    7.5989    4.7349   25.7386 C   0  0  0  0  0  0  0  0  0  0  0  0
    7.4628    5.0145   25.6947 C   0  0  0  0  0  0  0  0  0  0  0  0
    6.9524    3.8844   24.3687 C   0  0  0  0  0  0  0  0  0  0  0  0
    8.0329    2.5757   22.3543 C   0  0  0  0  0  0  0  0  0  0  0  0
    6.2487   -0.9500   21.8847 H   0  0  0  0  0  0  0  0  0  0  0  0
    7.3998   -1.5141   20.6649 H   0  0  0  0  0  0  0  0  0  0  0  0
    6.8861   -1.4851   18.3833 H   0  0  0  0  0  0  0  0  0  0  0  0
    3.6232    0.4374   16.7791 H   0  0  0  0  0  0  0  0  0  0  0  0
    2.1268    1.8310   18.1760 H   0  0  0  0  0  0  0  0  0  0  0  0
    1.5714    2.8321   20.3694 H   0  0  0  0  0  0  0  0  0  0  0  0
    2.9880    2.3438   22.3508 H   0  0  0  0  0  0  0  0  0  0  0  0
    4.8976    0.8266   22.1720 H   0  0  0  0  0  0  0  0  0  0  0  0
    8.0879   -0.4394   23.5581 H   0  0  0  0  0  0  0  0  0  0  0  0
    6.4861    0.2515   23.8098 H   0  0  0  0  0  0  0  0  0  0  0  0
    9.1893    1.2345   24.7333 H   0  0  0  0  0  0  0  0  0  0  0  0
    6.3458    1.3527   25.8193 H   0  0  0  0  0  0  0  0  0  0  0  0
    7.7367    0.4294   26.4183 H   0  0  0  0  0  0  0  0  0  0  0  0
   10.2892    2.9038   23.9745 H   0  0  0  0  0  0  0  0  0  0  0  0
    9.5411    4.5175   23.6303 H   0  0  0  0  0  0  0  0  0  0  0  0
    8.4634    5.3327   25.0560 H   0  0  0  0  0  0  0  0  0  0  0  0
    8.0883    5.3306   26.7482 H   0  0  0  0  0  0  0  0  0  0  0  0
    6.5323    4.5531   26.3839 H   0  0  0  0  0  0  0  0  0  0  0  0
    6.7270    6.3284   25.2303 H   0  0  0  0  0  0  0  0  0  0  0  0
    6.5735    4.4363   23.4456 H   0  0  0  0  0  0  0  0  0  0  0  0
    6.1282    3.1554   24.5683 H   0  0  0  0  0  0  0  0  0  0  0  0
    7.2989    3.2071   21.8392 H   0  0  0  0  0  0  0  0  0  0  0  0
    8.9825    2.7009   21.8114 H   0  0  0  0  0  0  0  0  0  0  0  0
  1  2  2  0
  2  3  1  0
  3  4  1  0
  4  5  2  0
  5  6  1  0
  6  7  2  0
  7  8  1  0
  8  9  2  0
  9 10  1  0
 10 11  2  0
 11 12  1  0
 12 13  2  0
  2 14  1  0
 14 15  1  0
 15 16  1  0
 16 17  1  0
 17 18  1  0
 16 19  1  0
 19 20  1  0
 20 21  1  0
 21 22  1  0
 22 23  1  0
 19 24  1  0
 13  4  1  0
 24 14  1  0
 13  8  1  0
 23 19  1  0
  3 25  1  0
  3 26  1  0
  5 27  1  0
  7 28  1  0
  9 29  1  0
 10 30  1  0
 11 31  1  0
 12 32  1  0
 15 33  1  0
 15 34  1  0
 16 35  1  1
 17 36  1  0
 17 37  1  0
 20 38  1  0
 20 39  1  0
 21 40  1  0
 21 41  1  0
 22 42  1  0
 22 43  1  0
 23 44  1  0
 23 45  1  0
 24 46  1  0
 24 47  1  0
M  END
$$$$
