
     RDKit          3D

 66 71  0  0  0  0  0  0  0  0999 V2000
    4.4417    5.0452   20.9068 C   0  0  0  0  0  0  0  0  0  0  0  0
    4.9807    4.6126   22.1883 N   0  0  0  0  0  0  0  0  0  0  0  0
    6.3282    4.5178   22.3627 C   0  0  0  0  0  0  0  0  0  0  0  0
    7.1153    4.9537   21.5431 O   0  0  0  0  0  0  0  0  0  0  0  0
    6.8060    3.8621   23.6733 C   0  0  0  0  0  0  0  0  0  0  0  0
    7.9065    2.9469   23.4436 N   0  0  0  0  0  0  0  0  0  0  0  0
    7.7123    1.5032   23.5310 C   0  0  0  0  0  0  0  0  0  0  0  0
    8.5321    0.7056   22.4691 C   0  0  2  0  0  0  0  0  0  0  0  0
    7.7991    0.9116   21.1220 C   0  0  0  0  0  0  0  0  0  0  0  0
    7.8844    1.8488   20.3715 O   0  0  0  0  0  0  0  0  0  0  0  0
    6.9429   -0.1529   20.9143 N   0  0  0  0  0  0  0  0  0  0  0  0
    5.9460   -0.0732   19.9064 C   0  0  0  0  0  0  0  0  0  0  0  0
    6.1538   -0.7063   18.7078 C   0  0  0  0  0  0  0  0  0  0  0  0
    5.3440   -0.5907   17.6260 N   0  0  0  0  0  0  0  0  0  0  0  0
    4.2782    0.1663   17.7479 C   0  0  0  0  0  0  0  0  0  0  0  0
    3.9109    0.8412   18.9480 C   0  0  0  0  0  0  0  0  0  0  0  0
    2.7343    1.6334   19.0366 C   0  0  0  0  0  0  0  0  0  0  0  0
    2.3497    2.1795   20.2307 C   0  0  0  0  0  0  0  0  0  0  0  0
    3.1255    1.9610   21.3890 C   0  0  0  0  0  0  0  0  0  0  0  0
    4.3061    1.2590   21.3162 C   0  0  0  0  0  0  0  0  0  0  0  0
    4.7434    0.6894   20.0851 C   0  0  0  0  0  0  0  0  0  0  0  0
    7.0503   -1.1953   21.9158 C   0  0  0  0  0  0  0  0  0  0  0  0
    8.3877   -0.8511   22.6053 C   0  0  2  0  0  0  0  0  0  0  0  0
    8.5436   -1.4621   24.0061 C   0  0  0  0  0  0  0  0  0  0  0  0
    9.7071   -0.9959   24.7270 N   0  0  0  0  0  0  0  0  0  0  0  0
   10.9779   -1.4705   24.5229 C   0  0  0  0  0  0  0  0  0  0  0  0
   11.2610   -2.5799   23.6899 C   0  0  0  0  0  0  0  0  0  0  0  0
   12.4972   -2.9859   23.4680 N   0  0  0  0  0  0  0  0  0  0  0  0
   13.4832   -2.3334   24.0911 C   0  0  0  0  0  0  0  0  0  0  0  0
   13.2066   -1.2742   24.9359 C   0  0  0  0  0  0  0  0  0  0  0  0
   11.9652   -0.8243   25.1378 N   0  0  0  0  0  0  0  0  0  0  0  0
    9.9617    1.2438   22.4740 C   0  0  0  0  0  0  0  0  0  0  0  0
   11.0525    0.4805   22.0384 C   0  0  0  0  0  0  0  0  0  0  0  0
   12.3296    1.0275   22.0435 C   0  0  0  0  0  0  0  0  0  0  0  0
   13.6871    0.0384   21.6178 Cl  0  0  0  0  0  0  0  0  0  0  0  0
   12.5788    2.3490   22.3994 C   0  0  0  0  0  0  0  0  0  0  0  0
   11.5135    3.1029   22.8231 C   0  0  0  0  0  0  0  0  0  0  0  0
   10.2261    2.5709   22.8617 C   0  0  0  0  0  0  0  0  0  0  0  0
    9.1484    3.5038   23.3129 C   0  0  0  0  0  0  0  0  0  0  0  0
    9.3856    4.6791   23.5621 O   0  0  0  0  0  0  0  0  0  0  0  0
    3.3586    5.1735   20.9841 H   0  0  0  0  0  0  0  0  0  0  0  0
    4.8927    5.9947   20.6018 H   0  0  0  0  0  0  0  0  0  0  0  0
    4.6534    4.2995   20.1280 H   0  0  0  0  0  0  0  0  0  0  0  0
    4.3490    4.3193   22.9160 H   0  0  0  0  0  0  0  0  0  0  0  0
    7.2101    4.6569   24.3100 H   0  0  0  0  0  0  0  0  0  0  0  0
    6.0024    3.3494   24.2171 H   0  0  0  0  0  0  0  0  0  0  0  0
    6.6450    1.3005   23.4028 H   0  0  0  0  0  0  0  0  0  0  0  0
    7.9842    1.1693   24.5334 H   0  0  0  0  0  0  0  0  0  0  0  0
    7.0245   -1.3494   18.5798 H   0  0  0  0  0  0  0  0  0  0  0  0
    3.6249    0.2616   16.8778 H   0  0  0  0  0  0  0  0  0  0  0  0
    2.1526    1.7966   18.1367 H   0  0  0  0  0  0  0  0  0  0  0  0
    1.4474    2.7835   20.2966 H   0  0  0  0  0  0  0  0  0  0  0  0
    2.7805    2.3456   22.3445 H   0  0  0  0  0  0  0  0  0  0  0  0
    4.9010    1.1212   22.2127 H   0  0  0  0  0  0  0  0  0  0  0  0
    6.2090   -1.1607   22.6292 H   0  0  0  0  0  0  0  0  0  0  0  0
    7.0467   -2.1829   21.4392 H   0  0  0  0  0  0  0  0  0  0  0  0
    9.1826   -1.2762   21.9793 H   0  0  0  0  0  0  0  0  0  0  0  0
    8.5926   -2.5573   23.9407 H   0  0  0  0  0  0  0  0  0  0  0  0
    7.6752   -1.2320   24.6352 H   0  0  0  0  0  0  0  0  0  0  0  0
    9.7126   -0.0121   24.9764 H   0  0  0  0  0  0  0  0  0  0  0  0
   10.4564   -3.1302   23.2036 H   0  0  0  0  0  0  0  0  0  0  0  0
   14.5045   -2.6318   23.8674 H   0  0  0  0  0  0  0  0  0  0  0  0
   14.0037   -0.7533   25.4632 H   0  0  0  0  0  0  0  0  0  0  0  0
   10.9387   -0.5438   21.6982 H   0  0  0  0  0  0  0  0  0  0  0  0
   13.5901    2.7444   22.3414 H   0  0  0  0  0  0  0  0  0  0  0  0
   11.6327    4.1426   23.1096 H   0  0  0  0  0  0  0  0  0  0  0  0
  1  2  1  0
  2  3  1  0
  3  4  2  0
  3  5  1  0
  5  6  1  0
  6  7  1  0
  8  7  1  1
  8  9  1  0
  9 10  2  0
  9 11  1  0
 11 12  1  0
 12 13  2  0
 13 14  1  0
 14 15  2  0
 15 16  1  0
 16 17  2  0
 17 18  1  0
 18 19  2  0
 19 20  1  0
 20 21  2  0
 11 22  1  0
 22 23  1  0
 23 24  1  0
 24 25  1  0
 25 26  1  0
 26 27  2  0
 27 28  1  0
 28 29  2  0
 29 30  1  0
 30 31  2  0
  8 32  1  0
 32 33  2  0
 33 34  1  0
 34 35  1  0
 34 36  2  0
 36 37  1  0
 37 38  2  0
 38 39  1  0
 39 40  2  0
 39  6  1  0
 23  8  1  0
 31 26  1  0
 38 32  1  0
 21 12  1  0
 21 16  1  0
  1 41  1  0
  1 42  1  0
  1 43  1  0
  2 44  1  0
  5 45  1  0
  5 46  1  0
  7 47  1  0
  7 48  1  0
 13 49  1  0
 15 50  1  0
 17 51  1  0
 18 52  1  0
 19 53  1  0
 20 54  1  0
 22 55  1  0
 22 56  1  0
 23 57  1  6
 24 58  1  0
 24 59  1  0
 25 60  1  0
 27 61  1  0
 29 62  1  0
 30 63  1  0
 33 64  1  0
 36 65  1  0
 37 66  1  0
M  END
$$$$
