
     RDKit          3D

 60 65  0  0  0  0  0  0  0  0999 V2000
   -7.0113    3.6321  -22.4900 C   0  0  0  0  0  0  0  0  0  0  0  0
   -7.7959    2.6966  -23.2711 N   0  0  0  0  0  0  0  0  0  0  0  0
   -7.5092    2.5256  -24.5757 C   0  0  0  0  0  0  0  0  0  0  0  0
   -6.7368    3.2398  -25.2023 O   0  0  0  0  0  0  0  0  0  0  0  0
   -8.1560    1.3539  -25.3220 C   0  0  0  0  0  0  0  0  0  0  0  0
   -8.9931    0.4613  -24.5628 N   0  0  0  0  0  0  0  0  0  0  0  0
   -8.5169   -0.8875  -24.2729 C   0  0  0  0  0  0  0  0  0  0  0  0
   -9.0672   -1.4198  -22.9241 C   0  0  2  0  0  0  0  0  0  0  0  0
   -8.4663   -0.5693  -21.7820 C   0  0  0  0  0  0  0  0  0  0  0  0
   -8.7735    0.5734  -21.5001 O   0  0  0  0  0  0  0  0  0  0  0  0
   -7.4985   -1.3049  -21.1428 N   0  0  0  0  0  0  0  0  0  0  0  0
   -6.6520   -0.7947  -20.1217 C   0  0  0  0  0  0  0  0  0  0  0  0
   -6.8852   -1.1462  -18.8167 C   0  0  0  0  0  0  0  0  0  0  0  0
   -6.1262   -0.7466  -17.7668 N   0  0  0  0  0  0  0  0  0  0  0  0
   -5.0994    0.0303  -18.0073 C   0  0  0  0  0  0  0  0  0  0  0  0
   -4.7527    0.4864  -19.3113 C   0  0  0  0  0  0  0  0  0  0  0  0
   -3.6616    1.3667  -19.5322 C   0  0  0  0  0  0  0  0  0  0  0  0
   -3.3229    1.7604  -20.7933 C   0  0  0  0  0  0  0  0  0  0  0  0
   -4.0593    1.2871  -21.9008 C   0  0  0  0  0  0  0  0  0  0  0  0
   -5.1416    0.4613  -21.7170 C   0  0  0  0  0  0  0  0  0  0  0  0
   -5.5287    0.0444  -20.4132 C   0  0  0  0  0  0  0  0  0  0  0  0
   -7.2254   -2.5627  -21.8051 C   0  0  0  0  0  0  0  0  0  0  0  0
   -8.5369   -2.8313  -22.5491 C   0  0  2  0  0  0  0  0  0  0  0  0
   -8.4128   -3.8613  -23.6880 C   0  0  0  0  0  0  0  0  0  0  0  0
   -9.7464   -4.2516  -24.2759 C   0  0  0  0  0  0  0  0  0  0  0  0
  -10.5574   -5.1573  -23.7403 N   0  0  0  0  0  0  0  0  0  0  0  0
  -11.6238   -5.1930  -24.5406 N   0  0  0  0  0  0  0  0  0  0  0  0
  -11.4585   -4.3453  -25.5141 N   0  0  0  0  0  0  0  0  0  0  0  0
  -10.2759   -3.7382  -25.3786 N   0  0  0  0  0  0  0  0  0  0  0  0
  -10.5751   -1.2806  -23.0267 C   0  0  0  0  0  0  0  0  0  0  0  0
  -11.4630   -2.2248  -22.5142 C   0  0  0  0  0  0  0  0  0  0  0  0
  -12.8200   -1.9666  -22.4775 C   0  0  0  0  0  0  0  0  0  0  0  0
  -13.8501   -3.1256  -21.6751 Cl  0  0  0  0  0  0  0  0  0  0  0  0
  -13.3637   -0.7992  -23.0142 C   0  0  0  0  0  0  0  0  0  0  0  0
  -12.5008    0.1144  -23.5892 C   0  0  0  0  0  0  0  0  0  0  0  0
  -11.1303   -0.1336  -23.6165 C   0  0  0  0  0  0  0  0  0  0  0  0
  -10.2596    0.8838  -24.2686 C   0  0  0  0  0  0  0  0  0  0  0  0
  -10.6495    2.0256  -24.4937 O   0  0  0  0  0  0  0  0  0  0  0  0
   -7.3110    4.6740  -22.6475 H   0  0  0  0  0  0  0  0  0  0  0  0
   -5.9486    3.5505  -22.7470 H   0  0  0  0  0  0  0  0  0  0  0  0
   -7.1399    3.3848  -21.4354 H   0  0  0  0  0  0  0  0  0  0  0  0
   -8.3484    2.0067  -22.7553 H   0  0  0  0  0  0  0  0  0  0  0  0
   -7.3390    0.7782  -25.7695 H   0  0  0  0  0  0  0  0  0  0  0  0
   -8.7329    1.7806  -26.1456 H   0  0  0  0  0  0  0  0  0  0  0  0
   -8.8325   -1.5739  -25.0711 H   0  0  0  0  0  0  0  0  0  0  0  0
   -7.4224   -0.8677  -24.2339 H   0  0  0  0  0  0  0  0  0  0  0  0
   -7.7534   -1.7531  -18.5633 H   0  0  0  0  0  0  0  0  0  0  0  0
   -4.5040    0.3683  -17.1534 H   0  0  0  0  0  0  0  0  0  0  0  0
   -3.1106    1.7307  -18.6699 H   0  0  0  0  0  0  0  0  0  0  0  0
   -2.4972    2.4488  -20.9565 H   0  0  0  0  0  0  0  0  0  0  0  0
   -3.7855    1.6054  -22.9019 H   0  0  0  0  0  0  0  0  0  0  0  0
   -5.7084    0.1206  -22.5793 H   0  0  0  0  0  0  0  0  0  0  0  0
   -6.9731   -3.3340  -21.0751 H   0  0  0  0  0  0  0  0  0  0  0  0
   -6.3805   -2.4807  -22.5068 H   0  0  0  0  0  0  0  0  0  0  0  0
   -9.2267   -3.2241  -21.7952 H   0  0  0  0  0  0  0  0  0  0  0  0
   -7.9356   -4.7737  -23.3233 H   0  0  0  0  0  0  0  0  0  0  0  0
   -7.7753   -3.4667  -24.4853 H   0  0  0  0  0  0  0  0  0  0  0  0
  -11.1173   -3.1693  -22.1102 H   0  0  0  0  0  0  0  0  0  0  0  0
  -14.4302   -0.6110  -22.9344 H   0  0  0  0  0  0  0  0  0  0  0  0
  -12.8676    1.0497  -24.0043 H   0  0  0  0  0  0  0  0  0  0  0  0
  1  2  1  0
  2  3  1  0
  3  4  2  0
  3  5  1  0
  5  6  1  0
  6  7  1  0
  8  7  1  6
  8  9  1  0
  9 10  2  0
  9 11  1  0
 11 12  1  0
 12 13  2  0
 13 14  1  0
 14 15  2  0
 15 16  1  0
 16 17  2  0
 17 18  1  0
 18 19  2  0
 19 20  1  0
 20 21  2  0
 11 22  1  0
 22 23  1  0
 23 24  1  0
 24 25  1  0
 25 26  1  0
 26 27  2  0
 27 28  1  0
 28 29  1  0
  8 30  1  0
 30 31  2  0
 31 32  1  0
 32 33  1  0
 32 34  2  0
 34 35  1  0
 35 36  2  0
 36 37  1  0
 37 38  2  0
 37  6  1  0
 23  8  1  0
 29 25  2  0
 36 30  1  0
 21 12  1  0
 21 16  1  0
  1 39  1  0
  1 40  1  0
  1 41  1  0
  2 42  1  0
  5 43  1  0
  5 44  1  0
  7 45  1  0
  7 46  1  0
 13 47  1  0
 15 48  1  0
 17 49  1  0
 18 50  1  0
 19 51  1  0
 20 52  1  0
 22 53  1  0
 22 54  1  0
 23 55  1  1
 24 56  1  0
 24 57  1  0
 31 58  1  0
 34 59  1  0
 35 60  1  0
M  CHG  1  28  -1
M  END
