
     RDKit          3D

 60 65  0  0  0  0  0  0  0  0999 V2000
    7.2819    4.6539   22.3840 C   0  0  0  0  0  0  0  0  0  0  0  0
    8.1093    3.7533   23.1620 N   0  0  0  0  0  0  0  0  0  0  0  0
    7.8559    3.5957   24.4751 C   0  0  0  0  0  0  0  0  0  0  0  0
    7.0776    4.2983   25.1075 O   0  0  0  0  0  0  0  0  0  0  0  0
    8.5514    2.4546   25.2251 C   0  0  0  0  0  0  0  0  0  0  0  0
    9.3965    1.5733   24.4616 N   0  0  0  0  0  0  0  0  0  0  0  0
    8.9521    0.2073   24.2034 C   0  0  0  0  0  0  0  0  0  0  0  0
    9.4876   -0.3314   22.8512 C   0  0  2  0  0  0  0  0  0  0  0  0
    8.8384    0.4835   21.7096 C   0  0  0  0  0  0  0  0  0  0  0  0
    9.1072    1.6295   21.4031 O   0  0  0  0  0  0  0  0  0  0  0  0
    7.8779   -0.2889   21.1036 N   0  0  0  0  0  0  0  0  0  0  0  0
    6.9954    0.1810   20.0937 C   0  0  0  0  0  0  0  0  0  0  0  0
    7.2099   -0.1851   18.7895 C   0  0  0  0  0  0  0  0  0  0  0  0
    6.4174    0.1763   17.7506 N   0  0  0  0  0  0  0  0  0  0  0  0
    5.3747    0.9282   18.0017 C   0  0  0  0  0  0  0  0  0  0  0  0
    5.0438    1.3957   19.3058 C   0  0  0  0  0  0  0  0  0  0  0  0
    3.9335    2.2489   19.5371 C   0  0  0  0  0  0  0  0  0  0  0  0
    3.6114    2.6535   20.7991 C   0  0  0  0  0  0  0  0  0  0  0  0
    4.3847    2.2188   21.8972 C   0  0  0  0  0  0  0  0  0  0  0  0
    5.4855    1.4204   21.7024 C   0  0  0  0  0  0  0  0  0  0  0  0
    5.8557    0.9933   20.3970 C   0  0  0  0  0  0  0  0  0  0  0  0
    7.6547   -1.5429   21.7914 C   0  0  0  0  0  0  0  0  0  0  0  0
    8.9891   -1.7629   22.5102 C   0  0  2  0  0  0  0  0  0  0  0  0
    8.9188   -2.7773   23.6675 C   0  0  0  0  0  0  0  0  0  0  0  0
   10.2753   -3.1209   24.2317 C   0  0  0  0  0  0  0  0  0  0  0  0
   11.0995   -4.0124   23.6924 N   0  0  0  0  0  0  0  0  0  0  0  0
   12.1836   -4.0056   24.4693 N   0  0  0  0  0  0  0  0  0  0  0  0
   12.0159   -3.1471   25.4329 N   0  0  0  0  0  0  0  0  0  0  0  0
   10.8140   -2.5752   25.3142 N   0  0  0  0  0  0  0  0  0  0  0  0
   10.9929   -0.1488   22.9181 C   0  0  0  0  0  0  0  0  0  0  0  0
   11.8956   -1.0763   22.4008 C   0  0  0  0  0  0  0  0  0  0  0  0
   13.2437   -0.7812   22.3300 C   0  0  0  0  0  0  0  0  0  0  0  0
   14.2882   -1.9241   21.5231 Cl  0  0  0  0  0  0  0  0  0  0  0  0
   13.7660    0.4094   22.8361 C   0  0  0  0  0  0  0  0  0  0  0  0
   12.8905    1.3079   23.4158 C   0  0  0  0  0  0  0  0  0  0  0  0
   11.5284    1.0225   23.4774 C   0  0  0  0  0  0  0  0  0  0  0  0
   10.6440    2.0259   24.1327 C   0  0  0  0  0  0  0  0  0  0  0  0
   11.0065    3.1816   24.3312 O   0  0  0  0  0  0  0  0  0  0  0  0
    7.5556    5.7062   22.5185 H   0  0  0  0  0  0  0  0  0  0  0  0
    6.2278    4.5471   22.6658 H   0  0  0  0  0  0  0  0  0  0  0  0
    7.3944    4.3932   21.3308 H   0  0  0  0  0  0  0  0  0  0  0  0
    8.6695    3.0707   22.6449 H   0  0  0  0  0  0  0  0  0  0  0  0
    7.7608    1.8638   25.6996 H   0  0  0  0  0  0  0  0  0  0  0  0
    9.1339    2.9104   26.0289 H   0  0  0  0  0  0  0  0  0  0  0  0
    9.3042   -0.4570   25.0050 H   0  0  0  0  0  0  0  0  0  0  0  0
    7.8569    0.1962   24.1884 H   0  0  0  0  0  0  0  0  0  0  0  0
    8.0891   -0.7717   18.5264 H   0  0  0  0  0  0  0  0  0  0  0  0
    4.7516    1.2357   17.1561 H   0  0  0  0  0  0  0  0  0  0  0  0
    3.3538    2.5835   18.6817 H   0  0  0  0  0  0  0  0  0  0  0  0
    2.7705    3.3213   20.9698 H   0  0  0  0  0  0  0  0  0  0  0  0
    4.1240    2.5456   22.8991 H   0  0  0  0  0  0  0  0  0  0  0  0
    6.0803    1.1096   22.5571 H   0  0  0  0  0  0  0  0  0  0  0  0
    7.4083   -2.3326   21.0793 H   0  0  0  0  0  0  0  0  0  0  0  0
    6.8233   -1.4729   22.5103 H   0  0  0  0  0  0  0  0  0  0  0  0
    9.6731   -2.1487   21.7474 H   0  0  0  0  0  0  0  0  0  0  0  0
    8.4595   -3.7084   23.3278 H   0  0  0  0  0  0  0  0  0  0  0  0
    8.2879   -2.3876   24.4725 H   0  0  0  0  0  0  0  0  0  0  0  0
   11.5678   -2.0364   22.0194 H   0  0  0  0  0  0  0  0  0  0  0  0
   14.8248    0.6257   22.7297 H   0  0  0  0  0  0  0  0  0  0  0  0
   13.2399    2.2596   23.8080 H   0  0  0  0  0  0  0  0  0  0  0  0
  1  2  1  0
  2  3  1  0
  3  4  2  0
  3  5  1  0
  5  6  1  0
  6  7  1  0
  8  7  1  1
  8  9  1  0
  9 10  2  0
  9 11  1  0
 11 12  1  0
 12 13  2  0
 13 14  1  0
 14 15  2  0
 15 16  1  0
 16 17  2  0
 17 18  1  0
 18 19  2  0
 19 20  1  0
 20 21  2  0
 11 22  1  0
 22 23  1  0
 23 24  1  0
 24 25  1  0
 25 26  1  0
 26 27  2  0
 27 28  1  0
 28 29  1  0
  8 30  1  0
 30 31  2  0
 31 32  1  0
 32 33  1  0
 32 34  2  0
 34 35  1  0
 35 36  2  0
 36 37  1  0
 37 38  2  0
 37  6  1  0
 23  8  1  0
 29 25  2  0
 36 30  1  0
 21 12  1  0
 21 16  1  0
  1 39  1  0
  1 40  1  0
  1 41  1  0
  2 42  1  0
  5 43  1  0
  5 44  1  0
  7 45  1  0
  7 46  1  0
 13 47  1  0
 15 48  1  0
 17 49  1  0
 18 50  1  0
 19 51  1  0
 20 52  1  0
 22 53  1  0
 22 54  1  0
 23 55  1  6
 24 56  1  0
 24 57  1  0
 31 58  1  0
 34 59  1  0
 35 60  1  0
M  CHG  1  28  -1
M  END
$$$$
