
     RDKit          3D

 64 68  0  0  0  0  0  0  0  0999 V2000
    9.9552   -2.8349   26.3937 C   0  0  0  0  0  0  0  0  0  0  0  0
    8.6847   -3.3472   25.7283 C   0  0  0  0  0  0  0  0  0  0  0  0
    8.6624   -3.0828   23.9586 S   0  0  0  0  0  0  0  0  0  0  0  0
    9.9254   -3.5566   23.4076 O   0  0  0  0  0  0  0  0  0  0  0  0
    7.4038   -3.6150   23.4600 O   0  0  0  0  0  0  0  0  0  0  0  0
    8.6154   -1.3838   23.8497 N   0  0  0  0  0  0  0  0  0  0  0  0
    8.5346   -0.8493   22.4727 C   0  0  1  0  0  0  0  0  0  0  0  0
    7.2021   -1.1938   21.7936 C   0  0  0  0  0  0  0  0  0  0  0  0
    7.0214   -0.0933   20.8746 N   0  0  0  0  0  0  0  0  0  0  0  0
    6.0128   -0.0417   19.8828 C   0  0  0  0  0  0  0  0  0  0  0  0
    6.1972   -0.6941   18.6924 C   0  0  0  0  0  0  0  0  0  0  0  0
    5.3645   -0.5990   17.6278 N   0  0  0  0  0  0  0  0  0  0  0  0
    4.2911    0.1440   17.7669 C   0  0  0  0  0  0  0  0  0  0  0  0
    3.9387    0.8152   18.9731 C   0  0  0  0  0  0  0  0  0  0  0  0
    2.7570    1.5951   19.0836 C   0  0  0  0  0  0  0  0  0  0  0  0
    2.4047    2.1613   20.2770 C   0  0  0  0  0  0  0  0  0  0  0  0
    3.2234    1.9827   21.4142 C   0  0  0  0  0  0  0  0  0  0  0  0
    4.3909    1.2661   21.3252 C   0  0  0  0  0  0  0  0  0  0  0  0
    4.7960    0.6870   20.0888 C   0  0  0  0  0  0  0  0  0  0  0  0
    7.8495    0.9897   21.1126 C   0  0  0  0  0  0  0  0  0  0  0  0
    7.8730    1.9809   20.4270 O   0  0  0  0  0  0  0  0  0  0  0  0
    8.6364    0.6944   22.4168 C   0  0  1  0  0  0  0  0  0  0  0  0
    7.8680    1.3693   23.5822 C   0  0  0  0  0  0  0  0  0  0  0  0
    7.8697    2.8165   23.4123 N   0  0  0  0  0  0  0  0  0  0  0  0
    6.6833    3.5907   23.7248 C   0  0  0  0  0  0  0  0  0  0  0  0
    6.5333    3.8327   25.2297 C   0  0  0  0  0  0  0  0  0  0  0  0
    5.7916    3.1693   25.9336 O   0  0  0  0  0  0  0  0  0  0  0  0
    7.3002    4.8384   25.7133 N   0  0  0  0  0  0  0  0  0  0  0  0
    7.1226    5.2734   27.0807 C   0  0  0  0  0  0  0  0  0  0  0  0
    9.0130    3.5016   23.1456 C   0  0  0  0  0  0  0  0  0  0  0  0
    9.1073    4.7132   23.3473 O   0  0  0  0  0  0  0  0  0  0  0  0
   10.1491    2.6967   22.6191 C   0  0  0  0  0  0  0  0  0  0  0  0
   11.3414    3.3692   22.3383 C   0  0  0  0  0  0  0  0  0  0  0  0
   12.4955    2.6329   22.1411 C   0  0  0  0  0  0  0  0  0  0  0  0
   12.4198    1.2425   22.2235 C   0  0  0  0  0  0  0  0  0  0  0  0
   13.8870    0.3225   22.1581 Cl  0  0  0  0  0  0  0  0  0  0  0  0
   11.2160    0.5739   22.3603 C   0  0  0  0  0  0  0  0  0  0  0  0
   10.0279    1.3033   22.4647 C   0  0  0  0  0  0  0  0  0  0  0  0
    9.9812   -1.7406   26.4415 H   0  0  0  0  0  0  0  0  0  0  0  0
   10.0098   -3.2087   27.4201 H   0  0  0  0  0  0  0  0  0  0  0  0
   10.8349   -3.1826   25.8465 H   0  0  0  0  0  0  0  0  0  0  0  0
    7.7740   -2.8843   26.1186 H   0  0  0  0  0  0  0  0  0  0  0  0
    8.5925   -4.4334   25.8317 H   0  0  0  0  0  0  0  0  0  0  0  0
    9.4559   -1.0127   24.2936 H   0  0  0  0  0  0  0  0  0  0  0  0
    9.3403   -1.2714   21.8560 H   0  0  0  0  0  0  0  0  0  0  0  0
    6.4134   -1.2415   22.5533 H   0  0  0  0  0  0  0  0  0  0  0  0
    7.2373   -2.1509   21.2704 H   0  0  0  0  0  0  0  0  0  0  0  0
    7.0740   -1.3243   18.5484 H   0  0  0  0  0  0  0  0  0  0  0  0
    3.6236    0.2280   16.9074 H   0  0  0  0  0  0  0  0  0  0  0  0
    2.1469    1.7386   18.1979 H   0  0  0  0  0  0  0  0  0  0  0  0
    1.4918    2.7451   20.3593 H   0  0  0  0  0  0  0  0  0  0  0  0
    2.9253    2.4241   22.3604 H   0  0  0  0  0  0  0  0  0  0  0  0
    5.0071    1.1319   22.2105 H   0  0  0  0  0  0  0  0  0  0  0  0
    6.8308    1.0324   23.6153 H   0  0  0  0  0  0  0  0  0  0  0  0
    8.3362    1.0823   24.5304 H   0  0  0  0  0  0  0  0  0  0  0  0
    6.7617    4.5430   23.1894 H   0  0  0  0  0  0  0  0  0  0  0  0
    5.7987    3.0672   23.3553 H   0  0  0  0  0  0  0  0  0  0  0  0
    7.9935    5.2631   25.1110 H   0  0  0  0  0  0  0  0  0  0  0  0
    7.0756    4.4083   27.7484 H   0  0  0  0  0  0  0  0  0  0  0  0
    7.9573    5.9156   27.3698 H   0  0  0  0  0  0  0  0  0  0  0  0
    6.1867    5.8318   27.2031 H   0  0  0  0  0  0  0  0  0  0  0  0
   11.3426    4.4605   22.3082 H   0  0  0  0  0  0  0  0  0  0  0  0
   13.4676    3.1024   21.9904 H   0  0  0  0  0  0  0  0  0  0  0  0
   11.2193   -0.5094   22.3708 H   0  0  0  0  0  0  0  0  0  0  0  0
  1  2  1  0
  2  3  1  0
  3  4  2  0
  3  5  2  0
  3  6  1  0
  6  7  1  0
  7  8  1  0
  8  9  1  0
  9 10  1  0
 10 11  2  0
 11 12  1  0
 12 13  2  0
 13 14  1  0
 14 15  2  0
 15 16  1  0
 16 17  2  0
 17 18  1  0
 18 19  2  0
  9 20  1  0
 20 21  2  0
 20 22  1  0
 22 23  1  1
 23 24  1  0
 24 25  1  0
 25 26  1  0
 26 27  2  0
 26 28  1  0
 28 29  1  0
 24 30  1  0
 30 31  2  0
 30 32  1  0
 32 33  2  0
 33 34  1  0
 34 35  2  0
 35 36  1  0
 35 37  1  0
 37 38  2  0
 22  7  1  0
 38 32  1  0
 19 10  1  0
 38 22  1  0
 19 14  1  0
  1 39  1  0
  1 40  1  0
  1 41  1  0
  2 42  1  0
  2 43  1  0
  6 44  1  0
  7 45  1  6
  8 46  1  0
  8 47  1  0
 11 48  1  0
 13 49  1  0
 15 50  1  0
 16 51  1  0
 17 52  1  0
 18 53  1  0
 23 54  1  0
 23 55  1  0
 25 56  1  0
 25 57  1  0
 28 58  1  0
 29 59  1  0
 29 60  1  0
 29 61  1  0
 33 62  1  0
 34 63  1  0
 37 64  1  0
M  END
$$$$
