
     RDKit          3D

 67 71  0  0  0  0  0  0  0  0999 V2000
    5.8270    3.1256   27.3752 C   0  0  0  0  0  0  0  0  0  0  0  0
    5.9935    2.9877   25.9409 N   0  0  0  0  0  0  0  0  0  0  0  0
    6.6795    3.9383   25.2485 C   0  0  0  0  0  0  0  0  0  0  0  0
    7.1478    4.9157   25.8110 O   0  0  0  0  0  0  0  0  0  0  0  0
    6.8184    3.7051   23.7343 C   0  0  0  0  0  0  0  0  0  0  0  0
    7.9438    2.8773   23.3479 N   0  0  0  0  0  0  0  0  0  0  0  0
    7.8771    1.4307   23.5299 C   0  0  0  0  0  0  0  0  0  0  0  0
    8.5900    0.6930   22.3651 C   0  0  2  0  0  0  0  0  0  0  0  0
    7.7351    0.9475   21.0969 C   0  0  0  0  0  0  0  0  0  0  0  0
    7.6880    1.9490   20.4208 O   0  0  0  0  0  0  0  0  0  0  0  0
    6.9555   -0.1658   20.8607 N   0  0  0  0  0  0  0  0  0  0  0  0
    5.9246   -0.1169   19.8885 C   0  0  0  0  0  0  0  0  0  0  0  0
    6.0808   -0.7842   18.7020 C   0  0  0  0  0  0  0  0  0  0  0  0
    5.2476   -0.6704   17.6408 N   0  0  0  0  0  0  0  0  0  0  0  0
    4.1952    0.1004   17.7878 C   0  0  0  0  0  0  0  0  0  0  0  0
    3.8595    0.7751   18.9950 C   0  0  0  0  0  0  0  0  0  0  0  0
    2.6760    1.5506   19.1143 C   0  0  0  0  0  0  0  0  0  0  0  0
    2.3380    2.1301   20.3053 C   0  0  0  0  0  0  0  0  0  0  0  0
    3.1850    1.9833   21.4265 C   0  0  0  0  0  0  0  0  0  0  0  0
    4.3555    1.2710   21.3265 C   0  0  0  0  0  0  0  0  0  0  0  0
    4.7324    0.6519   20.0985 C   0  0  0  0  0  0  0  0  0  0  0  0
    7.1990   -1.2696   21.7650 C   0  0  0  0  0  0  0  0  0  0  0  0
    8.5096   -0.8642   22.4864 C   0  0  2  0  0  0  0  0  0  0  0  0
    8.5655   -1.4824   23.8930 C   0  0  0  0  0  0  0  0  0  0  0  0
   10.1072   -1.3546   24.8178 S   0  0  0  0  0  0  0  0  0  0  0  0
   10.3875    0.0361   25.1186 O   0  0  0  0  0  0  0  0  0  0  0  0
   10.0332   -2.3283   25.8990 O   0  0  0  0  0  0  0  0  0  0  0  0
   11.2607   -1.8282   23.7085 N   0  0  0  0  0  0  0  0  0  0  0  0
   11.1759   -3.1997   23.2615 C   0  0  0  0  0  0  0  0  0  0  0  0
   12.6341   -1.4119   24.0110 C   0  0  0  0  0  0  0  0  0  0  0  0
    9.9948    1.2813   22.2660 C   0  0  0  0  0  0  0  0  0  0  0  0
   11.0975    0.5264   21.8409 C   0  0  0  0  0  0  0  0  0  0  0  0
   12.3455    1.1150   21.8137 C   0  0  0  0  0  0  0  0  0  0  0  0
   13.4056    0.3344   21.5247 F   0  0  0  0  0  0  0  0  0  0  0  0
   12.5734    2.4542   22.0923 C   0  0  0  0  0  0  0  0  0  0  0  0
   11.4844    3.2287   22.4279 C   0  0  0  0  0  0  0  0  0  0  0  0
   10.2285    2.6389   22.5636 C   0  0  0  0  0  0  0  0  0  0  0  0
    9.1213    3.5200   23.0493 C   0  0  0  0  0  0  0  0  0  0  0  0
    9.2633    4.7286   23.1714 O   0  0  0  0  0  0  0  0  0  0  0  0
    6.8004    3.0990   27.8751 H   0  0  0  0  0  0  0  0  0  0  0  0
    5.2144    2.2989   27.7401 H   0  0  0  0  0  0  0  0  0  0  0  0
    5.3484    4.0760   27.6388 H   0  0  0  0  0  0  0  0  0  0  0  0
    5.5031    2.2481   25.4602 H   0  0  0  0  0  0  0  0  0  0  0  0
    5.8981    3.2716   23.3180 H   0  0  0  0  0  0  0  0  0  0  0  0
    6.9955    4.6815   23.2819 H   0  0  0  0  0  0  0  0  0  0  0  0
    6.8254    1.1146   23.5596 H   0  0  0  0  0  0  0  0  0  0  0  0
    8.3680    1.1563   24.4705 H   0  0  0  0  0  0  0  0  0  0  0  0
    6.9454   -1.4311   18.5594 H   0  0  0  0  0  0  0  0  0  0  0  0
    3.5302    0.1946   16.9300 H   0  0  0  0  0  0  0  0  0  0  0  0
    2.0567    1.6856   18.2344 H   0  0  0  0  0  0  0  0  0  0  0  0
    1.4215    2.7078   20.3936 H   0  0  0  0  0  0  0  0  0  0  0  0
    2.9105    2.4508   22.3677 H   0  0  0  0  0  0  0  0  0  0  0  0
    5.0017    1.1754   22.1947 H   0  0  0  0  0  0  0  0  0  0  0  0
    7.2995   -2.2090   21.2069 H   0  0  0  0  0  0  0  0  0  0  0  0
    6.3633   -1.3980   22.4714 H   0  0  0  0  0  0  0  0  0  0  0  0
    9.3335   -1.2685   21.8897 H   0  0  0  0  0  0  0  0  0  0  0  0
    8.3251   -2.5529   23.8685 H   0  0  0  0  0  0  0  0  0  0  0  0
    7.8204   -1.0147   24.5466 H   0  0  0  0  0  0  0  0  0  0  0  0
   11.3167   -3.9251   24.0708 H   0  0  0  0  0  0  0  0  0  0  0  0
   11.9799   -3.2652   22.5382 H   0  0  0  0  0  0  0  0  0  0  0  0
   10.2345   -3.4070   22.7487 H   0  0  0  0  0  0  0  0  0  0  0  0
   13.0342   -1.8766   24.9238 H   0  0  0  0  0  0  0  0  0  0  0  0
   12.6619   -0.3272   24.1022 H   0  0  0  0  0  0  0  0  0  0  0  0
   13.2539   -1.7082   23.1603 H   0  0  0  0  0  0  0  0  0  0  0  0
   11.0540   -0.5212   21.5641 H   0  0  0  0  0  0  0  0  0  0  0  0
   13.5774    2.8440   22.0184 H   0  0  0  0  0  0  0  0  0  0  0  0
   11.5694    4.2966   22.5923 H   0  0  0  0  0  0  0  0  0  0  0  0
  1  2  1  0
  2  3  1  0
  3  4  2  0
  3  5  1  0
  5  6  1  0
  6  7  1  0
  8  7  1  1
  8  9  1  0
  9 10  2  0
  9 11  1  0
 11 12  1  0
 12 13  2  0
 13 14  1  0
 14 15  2  0
 15 16  1  0
 16 17  2  0
 17 18  1  0
 18 19  2  0
 19 20  1  0
 20 21  2  0
 11 22  1  0
 22 23  1  0
 23 24  1  0
 24 25  1  0
 25 26  2  0
 25 27  2  0
 25 28  1  0
 28 29  1  0
 28 30  1  0
  8 31  1  0
 31 32  2  0
 32 33  1  0
 33 34  1  0
 33 35  2  0
 35 36  1  0
 36 37  2  0
 37 38  1  0
 38 39  2  0
 38  6  1  0
 23  8  1  0
 37 31  1  0
 21 12  1  0
 21 16  1  0
  1 40  1  0
  1 41  1  0
  1 42  1  0
  2 43  1  0
  5 44  1  0
  5 45  1  0
  7 46  1  0
  7 47  1  0
 13 48  1  0
 15 49  1  0
 17 50  1  0
 18 51  1  0
 19 52  1  0
 20 53  1  0
 22 54  1  0
 22 55  1  0
 23 56  1  6
 24 57  1  0
 24 58  1  0
 29 59  1  0
 29 60  1  0
 29 61  1  0
 30 62  1  0
 30 63  1  0
 30 64  1  0
 32 65  1  0
 35 66  1  0
 36 67  1  0
M  END
$$$$
