
     RDKit          3D

 56 60  0  0  0  0  0  0  0  0999 V2000
   -7.0110    3.6340  -22.4916 C   0  0  0  0  0  0  0  0  0  0  0  0
   -7.8012    2.6979  -23.2672 N   0  0  0  0  0  0  0  0  0  0  0  0
   -7.5114    2.5257  -24.5754 C   0  0  0  0  0  0  0  0  0  0  0  0
   -6.7344    3.2310  -25.2038 O   0  0  0  0  0  0  0  0  0  0  0  0
   -8.1575    1.3533  -25.3168 C   0  0  0  0  0  0  0  0  0  0  0  0
   -8.9901    0.4556  -24.5597 N   0  0  0  0  0  0  0  0  0  0  0  0
   -8.5122   -0.8894  -24.2735 C   0  0  0  0  0  0  0  0  0  0  0  0
   -9.0702   -1.4209  -22.9330 C   0  0  2  0  0  0  0  0  0  0  0  0
   -8.4748   -0.5719  -21.7855 C   0  0  0  0  0  0  0  0  0  0  0  0
   -8.7829    0.5711  -21.5062 O   0  0  0  0  0  0  0  0  0  0  0  0
   -7.5082   -1.3050  -21.1400 N   0  0  0  0  0  0  0  0  0  0  0  0
   -6.6605   -0.7889  -20.1224 C   0  0  0  0  0  0  0  0  0  0  0  0
   -6.8855   -1.1465  -18.8169 C   0  0  0  0  0  0  0  0  0  0  0  0
   -6.1191   -0.7568  -17.7694 N   0  0  0  0  0  0  0  0  0  0  0  0
   -5.0951    0.0239  -18.0093 C   0  0  0  0  0  0  0  0  0  0  0  0
   -4.7552    0.4840  -19.3149 C   0  0  0  0  0  0  0  0  0  0  0  0
   -3.6635    1.3654  -19.5327 C   0  0  0  0  0  0  0  0  0  0  0  0
   -3.3222    1.7615  -20.7966 C   0  0  0  0  0  0  0  0  0  0  0  0
   -4.0567    1.2864  -21.9037 C   0  0  0  0  0  0  0  0  0  0  0  0
   -5.1424    0.4611  -21.7203 C   0  0  0  0  0  0  0  0  0  0  0  0
   -5.5322    0.0461  -20.4142 C   0  0  0  0  0  0  0  0  0  0  0  0
   -7.2231   -2.5611  -21.8031 C   0  0  0  0  0  0  0  0  0  0  0  0
   -8.5296   -2.8260  -22.5602 C   0  0  2  0  0  0  0  0  0  0  0  0
   -8.4215   -3.8194  -23.7093 C   0  0  0  0  0  0  0  0  0  0  0  0
  -10.5810   -1.2983  -23.0399 C   0  0  0  0  0  0  0  0  0  0  0  0
  -11.4732   -2.2526  -22.5429 C   0  0  0  0  0  0  0  0  0  0  0  0
  -12.8298   -1.9788  -22.4892 C   0  0  0  0  0  0  0  0  0  0  0  0
  -13.8612   -3.1105  -21.6519 Cl  0  0  0  0  0  0  0  0  0  0  0  0
  -13.3685   -0.8054  -23.0187 C   0  0  0  0  0  0  0  0  0  0  0  0
  -12.5007    0.1086  -23.5887 C   0  0  0  0  0  0  0  0  0  0  0  0
  -11.1296   -0.1441  -23.6174 C   0  0  0  0  0  0  0  0  0  0  0  0
  -10.2548    0.8787  -24.2621 C   0  0  0  0  0  0  0  0  0  0  0  0
  -10.6392    2.0197  -24.4807 O   0  0  0  0  0  0  0  0  0  0  0  0
   -7.3060    4.6761  -22.6457 H   0  0  0  0  0  0  0  0  0  0  0  0
   -7.1415    3.3850  -21.4371 H   0  0  0  0  0  0  0  0  0  0  0  0
   -5.9505    3.5505  -22.7489 H   0  0  0  0  0  0  0  0  0  0  0  0
   -8.3439    2.0083  -22.7580 H   0  0  0  0  0  0  0  0  0  0  0  0
   -7.3397    0.7763  -25.7616 H   0  0  0  0  0  0  0  0  0  0  0  0
   -8.7368    1.7784  -26.1403 H   0  0  0  0  0  0  0  0  0  0  0  0
   -7.4184   -0.8610  -24.2269 H   0  0  0  0  0  0  0  0  0  0  0  0
   -8.8089   -1.5779  -25.0756 H   0  0  0  0  0  0  0  0  0  0  0  0
   -7.7550   -1.7486  -18.5586 H   0  0  0  0  0  0  0  0  0  0  0  0
   -4.5108    0.3690  -17.1516 H   0  0  0  0  0  0  0  0  0  0  0  0
   -3.1240    1.7310  -18.6666 H   0  0  0  0  0  0  0  0  0  0  0  0
   -2.4988    2.4543  -20.9547 H   0  0  0  0  0  0  0  0  0  0  0  0
   -3.7835    1.6049  -22.9067 H   0  0  0  0  0  0  0  0  0  0  0  0
   -5.7101    0.1176  -22.5793 H   0  0  0  0  0  0  0  0  0  0  0  0
   -6.9668   -3.3314  -21.0723 H   0  0  0  0  0  0  0  0  0  0  0  0
   -6.3680   -2.4750  -22.4922 H   0  0  0  0  0  0  0  0  0  0  0  0
   -9.2312   -3.1996  -21.8106 H   0  0  0  0  0  0  0  0  0  0  0  0
   -7.6635   -3.5045  -24.4349 H   0  0  0  0  0  0  0  0  0  0  0  0
   -8.1347   -4.8166  -23.3645 H   0  0  0  0  0  0  0  0  0  0  0  0
   -9.3729   -3.9126  -24.2455 H   0  0  0  0  0  0  0  0  0  0  0  0
  -11.1239   -3.1808  -22.1074 H   0  0  0  0  0  0  0  0  0  0  0  0
  -14.4327   -0.6017  -22.9233 H   0  0  0  0  0  0  0  0  0  0  0  0
  -12.8508    1.0503  -24.0005 H   0  0  0  0  0  0  0  0  0  0  0  0
  1  2  1  0
  2  3  1  0
  3  4  2  0
  3  5  1  0
  5  6  1  0
  6  7  1  0
  8  7  1  6
  8  9  1  0
  9 10  2  0
  9 11  1  0
 11 12  1  0
 12 13  2  0
 13 14  1  0
 14 15  2  0
 15 16  1  0
 16 17  2  0
 17 18  1  0
 18 19  2  0
 19 20  1  0
 20 21  2  0
 11 22  1  0
 22 23  1  0
 23 24  1  0
  8 25  1  0
 25 26  2  0
 26 27  1  0
 27 28  1  0
 27 29  2  0
 29 30  1  0
 30 31  2  0
 31 32  1  0
 32 33  2  0
 32  6  1  0
 23  8  1  0
 31 25  1  0
 21 12  1  0
 21 16  1  0
  1 34  1  0
  1 35  1  0
  1 36  1  0
  2 37  1  0
  5 38  1  0
  5 39  1  0
  7 40  1  0
  7 41  1  0
 13 42  1  0
 15 43  1  0
 17 44  1  0
 18 45  1  0
 19 46  1  0
 20 47  1  0
 22 48  1  0
 22 49  1  0
 23 50  1  1
 24 51  1  0
 24 52  1  0
 24 53  1  0
 26 54  1  0
 29 55  1  0
 30 56  1  0
M  END
