
     RDKit          3D

 56 60  0  0  0  0  0  0  0  0999 V2000
    7.2816    4.6559   22.3856 C   0  0  0  0  0  0  0  0  0  0  0  0
    8.1144    3.7547   23.1580 N   0  0  0  0  0  0  0  0  0  0  0  0
    7.8581    3.5958   24.4748 C   0  0  0  0  0  0  0  0  0  0  0  0
    7.0755    4.2895   25.1092 O   0  0  0  0  0  0  0  0  0  0  0  0
    8.5528    2.4540   25.2199 C   0  0  0  0  0  0  0  0  0  0  0  0
    9.3936    1.5675   24.4586 N   0  0  0  0  0  0  0  0  0  0  0  0
    8.9475    0.2053   24.2042 C   0  0  0  0  0  0  0  0  0  0  0  0
    9.4909   -0.3322   22.8601 C   0  0  2  0  0  0  0  0  0  0  0  0
    8.8471    0.4812   21.7129 C   0  0  0  0  0  0  0  0  0  0  0  0
    9.1168    1.6276   21.4090 O   0  0  0  0  0  0  0  0  0  0  0  0
    7.8876   -0.2888   21.1006 N   0  0  0  0  0  0  0  0  0  0  0  0
    7.0038    0.1870   20.0941 C   0  0  0  0  0  0  0  0  0  0  0  0
    7.2102   -0.1853   18.7897 C   0  0  0  0  0  0  0  0  0  0  0  0
    6.4106    0.1659   17.7535 N   0  0  0  0  0  0  0  0  0  0  0  0
    5.3706    0.9218   18.0039 C   0  0  0  0  0  0  0  0  0  0  0  0
    5.0464    1.3934   19.3094 C   0  0  0  0  0  0  0  0  0  0  0  0
    3.9354    2.2477   19.5376 C   0  0  0  0  0  0  0  0  0  0  0  0
    3.6107    2.6546   20.8024 C   0  0  0  0  0  0  0  0  0  0  0  0
    4.3822    2.2181   21.9002 C   0  0  0  0  0  0  0  0  0  0  0  0
    5.4864    1.4203   21.7056 C   0  0  0  0  0  0  0  0  0  0  0  0
    5.8591    0.9951   20.3978 C   0  0  0  0  0  0  0  0  0  0  0  0
    7.6523   -1.5414   21.7894 C   0  0  0  0  0  0  0  0  0  0  0  0
    8.9819   -1.7576   22.5214 C   0  0  2  0  0  0  0  0  0  0  0  0
    8.9267   -2.7349   23.6880 C   0  0  0  0  0  0  0  0  0  0  0  0
   10.9996   -0.1661   22.9314 C   0  0  0  0  0  0  0  0  0  0  0  0
   11.9072   -1.1033   22.4297 C   0  0  0  0  0  0  0  0  0  0  0  0
   13.2541   -0.7930   22.3416 C   0  0  0  0  0  0  0  0  0  0  0  0
   14.2983   -1.9091   21.4994 Cl  0  0  0  0  0  0  0  0  0  0  0  0
   13.7711    0.4034   22.8406 C   0  0  0  0  0  0  0  0  0  0  0  0
   12.8906    1.3021   23.4154 C   0  0  0  0  0  0  0  0  0  0  0  0
   11.5281    1.0120   23.4785 C   0  0  0  0  0  0  0  0  0  0  0  0
   10.6392    2.0206   24.1264 C   0  0  0  0  0  0  0  0  0  0  0  0
   10.9961    3.1752   24.3186 O   0  0  0  0  0  0  0  0  0  0  0  0
    7.5505    5.7081   22.5168 H   0  0  0  0  0  0  0  0  0  0  0  0
    7.3960    4.3935   21.3324 H   0  0  0  0  0  0  0  0  0  0  0  0
    6.2297    4.5472   22.6676 H   0  0  0  0  0  0  0  0  0  0  0  0
    8.6651    3.0722   22.6477 H   0  0  0  0  0  0  0  0  0  0  0  0
    7.7614    1.8618   25.6917 H   0  0  0  0  0  0  0  0  0  0  0  0
    9.1378    2.9083   26.0236 H   0  0  0  0  0  0  0  0  0  0  0  0
    7.8526    0.2026   24.1814 H   0  0  0  0  0  0  0  0  0  0  0  0
    9.2808   -0.4616   25.0101 H   0  0  0  0  0  0  0  0  0  0  0  0
    8.0905   -0.7672   18.5216 H   0  0  0  0  0  0  0  0  0  0  0  0
    4.7583    1.2366   17.1541 H   0  0  0  0  0  0  0  0  0  0  0  0
    3.3672    2.5841   18.6781 H   0  0  0  0  0  0  0  0  0  0  0  0
    2.7719    3.3268   20.9679 H   0  0  0  0  0  0  0  0  0  0  0  0
    4.1221    2.5452   22.9039 H   0  0  0  0  0  0  0  0  0  0  0  0
    6.0820    1.1067   22.5571 H   0  0  0  0  0  0  0  0  0  0  0  0
    7.4019   -2.3302   21.0766 H   0  0  0  0  0  0  0  0  0  0  0  0
    6.8103   -1.4678   22.4959 H   0  0  0  0  0  0  0  0  0  0  0  0
    9.6772   -2.1238   21.7623 H   0  0  0  0  0  0  0  0  0  0  0  0
    8.1762   -2.4293   24.4252 H   0  0  0  0  0  0  0  0  0  0  0  0
    8.6606   -3.7451   23.3652 H   0  0  0  0  0  0  0  0  0  0  0  0
    9.8918   -2.7930   24.2043 H   0  0  0  0  0  0  0  0  0  0  0  0
   11.5747   -2.0478   22.0166 H   0  0  0  0  0  0  0  0  0  0  0  0
   14.8268    0.6349   22.7184 H   0  0  0  0  0  0  0  0  0  0  0  0
   13.2230    2.2597   23.8046 H   0  0  0  0  0  0  0  0  0  0  0  0
  1  2  1  0
  2  3  1  0
  3  4  2  0
  3  5  1  0
  5  6  1  0
  6  7  1  0
  8  7  1  1
  8  9  1  0
  9 10  2  0
  9 11  1  0
 11 12  1  0
 12 13  2  0
 13 14  1  0
 14 15  2  0
 15 16  1  0
 16 17  2  0
 17 18  1  0
 18 19  2  0
 19 20  1  0
 20 21  2  0
 11 22  1  0
 22 23  1  0
 23 24  1  0
  8 25  1  0
 25 26  2  0
 26 27  1  0
 27 28  1  0
 27 29  2  0
 29 30  1  0
 30 31  2  0
 31 32  1  0
 32 33  2  0
 32  6  1  0
 23  8  1  0
 31 25  1  0
 21 12  1  0
 21 16  1  0
  1 34  1  0
  1 35  1  0
  1 36  1  0
  2 37  1  0
  5 38  1  0
  5 39  1  0
  7 40  1  0
  7 41  1  0
 13 42  1  0
 15 43  1  0
 17 44  1  0
 18 45  1  0
 19 46  1  0
 20 47  1  0
 22 48  1  0
 22 49  1  0
 23 50  1  6
 24 51  1  0
 24 52  1  0
 24 53  1  0
 26 54  1  0
 29 55  1  0
 30 56  1  0
M  END
$$$$
