
     RDKit          3D

 60 64  0  0  0  0  0  0  0  0999 V2000
    7.1641    5.1937   27.1331 C   0  0  0  0  0  0  0  0  0  0  0  0
    7.3369    4.9294   25.7201 N   0  0  0  0  0  0  0  0  0  0  0  0
    6.6604    3.8940   25.1643 C   0  0  0  0  0  0  0  0  0  0  0  0
    5.9592    3.1350   25.8205 O   0  0  0  0  0  0  0  0  0  0  0  0
    6.8244    3.7427   23.6522 C   0  0  0  0  0  0  0  0  0  0  0  0
    7.9581    2.9090   23.3087 N   0  0  0  0  0  0  0  0  0  0  0  0
    7.8954    1.4711   23.5229 C   0  0  0  0  0  0  0  0  0  0  0  0
    8.5702    0.7142   22.3500 C   0  0  2  0  0  0  0  0  0  0  0  0
    7.7231    0.9714   21.0769 C   0  0  0  0  0  0  0  0  0  0  0  0
    7.6670    1.9686   20.3978 O   0  0  0  0  0  0  0  0  0  0  0  0
    6.9490   -0.1464   20.8396 N   0  0  0  0  0  0  0  0  0  0  0  0
    5.9185   -0.1083   19.8711 C   0  0  0  0  0  0  0  0  0  0  0  0
    6.0717   -0.7808   18.6875 C   0  0  0  0  0  0  0  0  0  0  0  0
    5.2355   -0.6686   17.6285 N   0  0  0  0  0  0  0  0  0  0  0  0
    4.1827    0.1024   17.7760 C   0  0  0  0  0  0  0  0  0  0  0  0
    3.8531    0.7795   18.9841 C   0  0  0  0  0  0  0  0  0  0  0  0
    2.6705    1.5546   19.1099 C   0  0  0  0  0  0  0  0  0  0  0  0
    2.3360    2.1298   20.3042 C   0  0  0  0  0  0  0  0  0  0  0  0
    3.1867    1.9846   21.4228 C   0  0  0  0  0  0  0  0  0  0  0  0
    4.3588    1.2766   21.3164 C   0  0  0  0  0  0  0  0  0  0  0  0
    4.7283    0.6582   20.0853 C   0  0  0  0  0  0  0  0  0  0  0  0
    7.1926   -1.2552   21.7320 C   0  0  0  0  0  0  0  0  0  0  0  0
    8.4626   -0.8338   22.4883 C   0  0  2  0  0  0  0  0  0  0  0  0
    8.4858   -1.3808   23.9165 C   0  0  0  0  0  0  0  0  0  0  0  0
    9.6663   -1.0457   24.6100 O   0  0  0  0  0  0  0  0  0  0  0  0
   10.7123   -1.9675   24.4219 C   0  0  0  0  0  0  0  0  0  0  0  0
    9.9855    1.2747   22.2814 C   0  0  0  0  0  0  0  0  0  0  0  0
   11.0957    0.4754   21.9887 C   0  0  0  0  0  0  0  0  0  0  0  0
   12.3481    1.0473   21.8673 C   0  0  0  0  0  0  0  0  0  0  0  0
   13.7008    0.0005   21.5667 Cl  0  0  0  0  0  0  0  0  0  0  0  0
   12.5509    2.4260   21.9450 C   0  0  0  0  0  0  0  0  0  0  0  0
   11.4627    3.2289   22.2239 C   0  0  0  0  0  0  0  0  0  0  0  0
   10.2174    2.6491   22.4885 C   0  0  0  0  0  0  0  0  0  0  0  0
    9.1462    3.5291   23.0528 C   0  0  0  0  0  0  0  0  0  0  0  0
    9.3218    4.7244   23.2861 O   0  0  0  0  0  0  0  0  0  0  0  0
    7.2624    4.2672   27.7063 H   0  0  0  0  0  0  0  0  0  0  0  0
    7.9088    5.9178   27.4702 H   0  0  0  0  0  0  0  0  0  0  0  0
    6.1641    5.5944   27.3295 H   0  0  0  0  0  0  0  0  0  0  0  0
    8.0838    5.3666   25.1970 H   0  0  0  0  0  0  0  0  0  0  0  0
    5.9093    3.3006   23.2434 H   0  0  0  0  0  0  0  0  0  0  0  0
    6.9933    4.7178   23.1870 H   0  0  0  0  0  0  0  0  0  0  0  0
    6.8432    1.1905   23.6318 H   0  0  0  0  0  0  0  0  0  0  0  0
    8.4201    1.1985   24.4492 H   0  0  0  0  0  0  0  0  0  0  0  0
    6.9362   -1.4279   18.5431 H   0  0  0  0  0  0  0  0  0  0  0  0
    3.5093    0.1951   16.9230 H   0  0  0  0  0  0  0  0  0  0  0  0
    2.0462    1.6905   18.2338 H   0  0  0  0  0  0  0  0  0  0  0  0
    1.4175    2.7030   20.3980 H   0  0  0  0  0  0  0  0  0  0  0  0
    2.9128    2.4474   22.3669 H   0  0  0  0  0  0  0  0  0  0  0  0
    5.0078    1.1804   22.1831 H   0  0  0  0  0  0  0  0  0  0  0  0
    7.3352   -2.1808   21.1625 H   0  0  0  0  0  0  0  0  0  0  0  0
    6.3466   -1.4186   22.4152 H   0  0  0  0  0  0  0  0  0  0  0  0
    9.3048   -1.2564   21.9377 H   0  0  0  0  0  0  0  0  0  0  0  0
    8.3413   -2.4725   23.9055 H   0  0  0  0  0  0  0  0  0  0  0  0
    7.6494   -0.9530   24.4837 H   0  0  0  0  0  0  0  0  0  0  0  0
   10.9436   -2.1396   23.3612 H   0  0  0  0  0  0  0  0  0  0  0  0
   11.5960   -1.5497   24.9100 H   0  0  0  0  0  0  0  0  0  0  0  0
   10.4770   -2.9446   24.8734 H   0  0  0  0  0  0  0  0  0  0  0  0
   11.0075   -0.5894   21.8279 H   0  0  0  0  0  0  0  0  0  0  0  0
   13.5429    2.8519   21.8196 H   0  0  0  0  0  0  0  0  0  0  0  0
   11.5695    4.3118   22.2806 H   0  0  0  0  0  0  0  0  0  0  0  0
  1  2  1  0
  2  3  1  0
  3  4  2  0
  3  5  1  0
  5  6  1  0
  6  7  1  0
  8  7  1  1
  8  9  1  0
  9 10  2  0
  9 11  1  0
 11 12  1  0
 12 13  2  0
 13 14  1  0
 14 15  2  0
 15 16  1  0
 16 17  2  0
 17 18  1  0
 18 19  2  0
 19 20  1  0
 20 21  2  0
 11 22  1  0
 22 23  1  0
 23 24  1  0
 24 25  1  0
 25 26  1  0
  8 27  1  0
 27 28  2  0
 28 29  1  0
 29 30  1  0
 29 31  2  0
 31 32  1  0
 32 33  2  0
 33 34  1  0
 34 35  2  0
 34  6  1  0
 23  8  1  0
 33 27  1  0
 21 12  1  0
 21 16  1  0
  1 36  1  0
  1 37  1  0
  1 38  1  0
  2 39  1  0
  5 40  1  0
  5 41  1  0
  7 42  1  0
  7 43  1  0
 13 44  1  0
 15 45  1  0
 17 46  1  0
 18 47  1  0
 19 48  1  0
 20 49  1  0
 22 50  1  0
 22 51  1  0
 23 52  1  6
 24 53  1  0
 24 54  1  0
 26 55  1  0
 26 56  1  0
 26 57  1  0
 28 58  1  0
 31 59  1  0
 32 60  1  0
M  END
$$$$
