
     RDKit          3D

 68 73  0  0  0  0  0  0  0  0999 V2000
    4.0179    2.4428   25.1887 C   0  0  0  0  0  0  0  0  0  0  0  0
    5.3233    3.0652   25.3064 N   0  0  0  0  0  0  0  0  0  0  0  0
    5.9020    3.5526   24.1711 C   0  0  0  0  0  0  0  0  0  0  0  0
    5.2752    3.7011   23.1389 O   0  0  0  0  0  0  0  0  0  0  0  0
    7.3973    3.8173   24.2608 C   0  0  0  0  0  0  0  0  0  0  0  0
    8.1612    2.8271   23.5150 N   0  0  0  0  0  0  0  0  0  0  0  0
    7.7568    1.4265   23.5965 C   0  0  0  0  0  0  0  0  0  0  0  0
    8.4303    0.5395   22.4977 C   0  0  2  0  0  0  0  0  0  0  0  0
    7.7222    0.8314   21.1524 C   0  0  0  0  0  0  0  0  0  0  0  0
    7.8510    1.8056   20.4500 O   0  0  0  0  0  0  0  0  0  0  0  0
    6.8718   -0.2202   20.8614 N   0  0  0  0  0  0  0  0  0  0  0  0
    5.9086   -0.0892   19.8299 C   0  0  0  0  0  0  0  0  0  0  0  0
    6.1283   -0.6835   18.6151 C   0  0  0  0  0  0  0  0  0  0  0  0
    5.3148   -0.5460   17.5385 N   0  0  0  0  0  0  0  0  0  0  0  0
    4.2414    0.1962   17.6826 C   0  0  0  0  0  0  0  0  0  0  0  0
    3.8764    0.8438   18.8996 C   0  0  0  0  0  0  0  0  0  0  0  0
    2.7100    1.6472   19.0144 C   0  0  0  0  0  0  0  0  0  0  0  0
    2.3726    2.2221   20.2092 C   0  0  0  0  0  0  0  0  0  0  0  0
    3.1963    2.0416   21.3433 C   0  0  0  0  0  0  0  0  0  0  0  0
    4.3425    1.2933   21.2526 C   0  0  0  0  0  0  0  0  0  0  0  0
    4.7194    0.6829   20.0221 C   0  0  0  0  0  0  0  0  0  0  0  0
    6.8312   -1.2427   21.8896 C   0  0  0  0  0  0  0  0  0  0  0  0
    8.1305   -0.9744   22.6605 C   0  0  2  0  0  0  0  0  0  0  0  0
    8.1218   -1.5320   24.0883 C   0  0  0  0  0  0  0  0  0  0  0  0
    9.2629   -1.1784   24.9147 N   0  0  0  0  0  0  0  0  0  0  0  0
   10.5216   -1.7325   24.6665 C   0  0  0  0  0  0  0  0  0  0  0  0
   10.9438   -2.9244   24.0143 C   0  0  0  0  0  0  0  0  0  0  0  0
   12.2719   -3.0110   23.9906 N   0  0  0  0  0  0  0  0  0  0  0  0
   12.7193   -1.9220   24.6226 N   0  0  0  0  0  0  0  0  0  0  0  0
   14.1349   -1.6120   24.6717 C   0  0  0  0  0  0  0  0  0  0  0  0
   11.7027   -1.1284   25.0451 C   0  0  0  0  0  0  0  0  0  0  0  0
    9.9154    0.8579   22.4080 C   0  0  0  0  0  0  0  0  0  0  0  0
   10.8573   -0.0509   21.8994 C   0  0  0  0  0  0  0  0  0  0  0  0
   12.1975    0.2910   21.8532 C   0  0  0  0  0  0  0  0  0  0  0  0
   13.3648   -0.8981   21.3524 Cl  0  0  0  0  0  0  0  0  0  0  0  0
   12.6418    1.5585   22.2163 C   0  0  0  0  0  0  0  0  0  0  0  0
   11.7113    2.4728   22.6550 C   0  0  0  0  0  0  0  0  0  0  0  0
   10.3656    2.1364   22.7442 C   0  0  0  0  0  0  0  0  0  0  0  0
    9.4232    3.2195   23.1581 C   0  0  0  0  0  0  0  0  0  0  0  0
    9.7744    4.3912   23.1853 O   0  0  0  0  0  0  0  0  0  0  0  0
    3.7543    1.9721   26.1358 H   0  0  0  0  0  0  0  0  0  0  0  0
    3.2657    3.1954   24.9382 H   0  0  0  0  0  0  0  0  0  0  0  0
    4.0109    1.6860   24.3917 H   0  0  0  0  0  0  0  0  0  0  0  0
    5.9303    2.7829   26.0610 H   0  0  0  0  0  0  0  0  0  0  0  0
    7.6280    4.7807   23.7980 H   0  0  0  0  0  0  0  0  0  0  0  0
    7.7326    3.8760   25.3078 H   0  0  0  0  0  0  0  0  0  0  0  0
    6.6752    1.3928   23.4472 H   0  0  0  0  0  0  0  0  0  0  0  0
    7.9486    1.0426   24.6067 H   0  0  0  0  0  0  0  0  0  0  0  0
    7.0130   -1.3007   18.4610 H   0  0  0  0  0  0  0  0  0  0  0  0
    3.5866    0.3056   16.8161 H   0  0  0  0  0  0  0  0  0  0  0  0
    2.1070    1.8149   18.1275 H   0  0  0  0  0  0  0  0  0  0  0  0
    1.4765    2.8306   20.2913 H   0  0  0  0  0  0  0  0  0  0  0  0
    2.9504    2.5246   22.2845 H   0  0  0  0  0  0  0  0  0  0  0  0
    4.9832    1.1878   22.1239 H   0  0  0  0  0  0  0  0  0  0  0  0
    6.8040   -2.2450   21.4467 H   0  0  0  0  0  0  0  0  0  0  0  0
    5.9439   -1.1451   22.5381 H   0  0  0  0  0  0  0  0  0  0  0  0
    8.9204   -1.4849   22.1065 H   0  0  0  0  0  0  0  0  0  0  0  0
    8.0925   -2.6247   24.0497 H   0  0  0  0  0  0  0  0  0  0  0  0
    7.2152   -1.1838   24.6034 H   0  0  0  0  0  0  0  0  0  0  0  0
    9.3620   -0.1768   25.0582 H   0  0  0  0  0  0  0  0  0  0  0  0
   10.3556   -3.7082   23.5412 H   0  0  0  0  0  0  0  0  0  0  0  0
   14.5250   -1.6366   25.6951 H   0  0  0  0  0  0  0  0  0  0  0  0
   14.2915   -0.6091   24.2662 H   0  0  0  0  0  0  0  0  0  0  0  0
   14.6701   -2.3381   24.0580 H   0  0  0  0  0  0  0  0  0  0  0  0
   11.8485   -0.1717   25.5396 H   0  0  0  0  0  0  0  0  0  0  0  0
   10.5708   -1.0370   21.5484 H   0  0  0  0  0  0  0  0  0  0  0  0
   13.6903    1.8138   22.1121 H   0  0  0  0  0  0  0  0  0  0  0  0
   11.9840    3.4869   22.9112 H   0  0  0  0  0  0  0  0  0  0  0  0
  1  2  1  0
  2  3  1  0
  3  4  2  0
  3  5  1  0
  5  6  1  0
  6  7  1  0
  8  7  1  1
  8  9  1  0
  9 10  2  0
  9 11  1  0
 11 12  1  0
 12 13  2  0
 13 14  1  0
 14 15  2  0
 15 16  1  0
 16 17  2  0
 17 18  1  0
 18 19  2  0
 19 20  1  0
 20 21  2  0
 11 22  1  0
 22 23  1  0
 23 24  1  0
 24 25  1  0
 25 26  1  0
 26 27  1  0
 27 28  2  0
 28 29  1  0
 29 30  1  0
 29 31  1  0
  8 32  1  0
 32 33  2  0
 33 34  1  0
 34 35  1  0
 34 36  2  0
 36 37  1  0
 37 38  2  0
 38 39  1  0
 39 40  2  0
 39  6  1  0
 23  8  1  0
 31 26  2  0
 38 32  1  0
 21 12  1  0
 21 16  1  0
  1 41  1  0
  1 42  1  0
  1 43  1  0
  2 44  1  0
  5 45  1  0
  5 46  1  0
  7 47  1  0
  7 48  1  0
 13 49  1  0
 15 50  1  0
 17 51  1  0
 18 52  1  0
 19 53  1  0
 20 54  1  0
 22 55  1  0
 22 56  1  0
 23 57  1  6
 24 58  1  0
 24 59  1  0
 25 60  1  0
 27 61  1  0
 30 62  1  0
 30 63  1  0
 30 64  1  0
 31 65  1  0
 33 66  1  0
 36 67  1  0
 37 68  1  0
M  END
$$$$
