
     RDKit          3D

 48 51  0  0  0  0  0  0  0  0999 V2000
   13.7733    0.1245   23.5539 N   0  0  0  0  0  0  0  0  0  0  0  0
   12.6934   -0.2742   23.4087 C   0  0  0  0  0  0  0  0  0  0  0  0
   11.3518   -0.7653   23.2304 C   0  0  0  0  0  0  0  0  0  0  0  0
   11.1320   -2.0020   22.6174 C   0  0  0  0  0  0  0  0  0  0  0  0
    9.8405   -2.4744   22.4465 C   0  0  0  0  0  0  0  0  0  0  0  0
    8.7531   -1.7099   22.8607 C   0  0  0  0  0  0  0  0  0  0  0  0
    7.4338   -2.2088   22.6591 N   0  0  0  0  0  0  0  0  0  0  0  0
    7.0094   -3.3763   23.4307 C   0  0  0  0  0  0  0  0  0  0  0  0
    6.6072   -3.0279   24.8495 C   0  0  0  0  0  0  0  0  0  0  0  0
    7.5867   -2.8925   25.8232 C   0  0  0  0  0  0  0  0  0  0  0  0
    7.2430   -2.5594   27.1236 C   0  0  0  0  0  0  0  0  0  0  0  0
    5.9283   -2.2828   27.4794 C   0  0  0  0  0  0  0  0  0  0  0  0
    4.9467   -2.4395   26.5103 C   0  0  0  0  0  0  0  0  0  0  0  0
    3.2774   -2.1622   26.9397 Cl  0  0  0  0  0  0  0  0  0  0  0  0
    5.2724   -2.8274   25.2118 C   0  0  0  0  0  0  0  0  0  0  0  0
    6.4347   -1.5119   22.0203 C   0  0  0  0  0  0  0  0  0  0  0  0
    5.2652   -1.8046   22.1860 O   0  0  0  0  0  0  0  0  0  0  0  0
    6.8713   -0.4040   21.0531 C   0  0  0  0  0  0  0  0  0  0  0  0
    5.8691   -0.1869   19.9538 C   0  0  0  0  0  0  0  0  0  0  0  0
    6.0448   -0.8062   18.7471 C   0  0  0  0  0  0  0  0  0  0  0  0
    5.2379   -0.6664   17.6658 N   0  0  0  0  0  0  0  0  0  0  0  0
    4.1749    0.0850   17.8077 C   0  0  0  0  0  0  0  0  0  0  0  0
    3.8229    0.7345   19.0204 C   0  0  0  0  0  0  0  0  0  0  0  0
    2.6360    1.4967   19.1463 C   0  0  0  0  0  0  0  0  0  0  0  0
    2.3051    2.0966   20.3282 C   0  0  0  0  0  0  0  0  0  0  0  0
    3.1850    1.9974   21.4288 C   0  0  0  0  0  0  0  0  0  0  0  0
    4.3511    1.2788   21.3272 C   0  0  0  0  0  0  0  0  0  0  0  0
    4.6961    0.6093   20.1252 C   0  0  0  0  0  0  0  0  0  0  0  0
    8.9676   -0.4841   23.4938 C   0  0  0  0  0  0  0  0  0  0  0  0
   10.2598   -0.0155   23.6742 C   0  0  0  0  0  0  0  0  0  0  0  0
   11.9739   -2.5945   22.2822 H   0  0  0  0  0  0  0  0  0  0  0  0
    9.6579   -3.4389   21.9809 H   0  0  0  0  0  0  0  0  0  0  0  0
    6.1668   -3.8442   22.9152 H   0  0  0  0  0  0  0  0  0  0  0  0
    7.8633   -4.0586   23.4551 H   0  0  0  0  0  0  0  0  0  0  0  0
    8.6397   -3.0378   25.5896 H   0  0  0  0  0  0  0  0  0  0  0  0
    8.0193   -2.5920   27.8630 H   0  0  0  0  0  0  0  0  0  0  0  0
    5.6801   -1.9773   28.4950 H   0  0  0  0  0  0  0  0  0  0  0  0
    4.4868   -2.9352   24.4739 H   0  0  0  0  0  0  0  0  0  0  0  0
    7.8500   -0.6903   20.6450 H   0  0  0  0  0  0  0  0  0  0  0  0
    7.0374    0.5249   21.6170 H   0  0  0  0  0  0  0  0  0  0  0  0
    6.8904   -1.4738   18.5853 H   0  0  0  0  0  0  0  0  0  0  0  0
    3.5204    0.1829   16.9386 H   0  0  0  0  0  0  0  0  0  0  0  0
    2.0101    1.6153   18.2711 H   0  0  0  0  0  0  0  0  0  0  0  0
    1.3780    2.6592   20.4217 H   0  0  0  0  0  0  0  0  0  0  0  0
    2.9377    2.5075   22.3546 H   0  0  0  0  0  0  0  0  0  0  0  0
    5.0247    1.2064   22.1741 H   0  0  0  0  0  0  0  0  0  0  0  0
    8.1241    0.0919   23.8687 H   0  0  0  0  0  0  0  0  0  0  0  0
   10.4343    0.9415   24.1496 H   0  0  0  0  0  0  0  0  0  0  0  0
  1  2  3  0
  2  3  1  0
  3  4  2  0
  4  5  1  0
  5  6  2  0
  6  7  1  0
  7  8  1  0
  8  9  1  0
  9 10  2  0
 10 11  1  0
 11 12  2  0
 12 13  1  0
 13 14  1  0
 13 15  2  0
  7 16  1  0
 16 17  2  0
 16 18  1  0
 18 19  1  0
 19 20  2  0
 20 21  1  0
 21 22  2  0
 22 23  1  0
 23 24  2  0
 24 25  1  0
 25 26  2  0
 26 27  1  0
 27 28  2  0
  6 29  1  0
 29 30  2  0
 30  3  1  0
 15  9  1  0
 28 19  1  0
 28 23  1  0
  4 31  1  0
  5 32  1  0
  8 33  1  0
  8 34  1  0
 10 35  1  0
 11 36  1  0
 12 37  1  0
 15 38  1  0
 18 39  1  0
 18 40  1  0
 20 41  1  0
 22 42  1  0
 24 43  1  0
 25 44  1  0
 26 45  1  0
 27 46  1  0
 29 47  1  0
 30 48  1  0
M  END
$$$$
