
     RDKit          3D

 57 60  0  0  0  0  0  0  0  0999 V2000
   10.4093    7.2533   22.5322 C   0  0  0  0  0  0  0  0  0  0  0  0
   11.2027    6.0401   23.0663 C   0  0  0  0  0  0  0  0  0  0  0  0
   11.5736    6.2088   24.5541 C   0  0  0  0  0  0  0  0  0  0  0  0
   12.4494    6.0293   22.2768 C   0  0  0  0  0  0  0  0  0  0  0  0
   13.3945    6.1266   21.6176 N   0  0  0  0  0  0  0  0  0  0  0  0
   10.4062    4.7394   22.9195 C   0  0  0  0  0  0  0  0  0  0  0  0
   10.8975    3.6251   22.2344 C   0  0  0  0  0  0  0  0  0  0  0  0
   10.1346    2.4622   22.1675 C   0  0  0  0  0  0  0  0  0  0  0  0
    8.8875    2.4029   22.7826 C   0  0  0  0  0  0  0  0  0  0  0  0
    8.0618    1.2496   22.6536 N   0  0  0  0  0  0  0  0  0  0  0  0
    7.9127    0.3929   23.8247 C   0  0  0  0  0  0  0  0  0  0  0  0
    8.7207   -0.8725   23.6739 C   0  0  0  0  0  0  0  0  0  0  0  0
   10.0853   -0.7725   23.4047 C   0  0  0  0  0  0  0  0  0  0  0  0
   10.8543   -1.9186   23.2729 C   0  0  0  0  0  0  0  0  0  0  0  0
   10.2710   -3.1724   23.4068 C   0  0  0  0  0  0  0  0  0  0  0  0
    8.9015   -3.2692   23.5982 C   0  0  0  0  0  0  0  0  0  0  0  0
    8.1417   -4.8374   23.6721 Cl  0  0  0  0  0  0  0  0  0  0  0  0
    8.1217   -2.1271   23.7305 C   0  0  0  0  0  0  0  0  0  0  0  0
    7.7200    0.8812   21.3654 C   0  0  0  0  0  0  0  0  0  0  0  0
    8.1061    1.5138   20.3946 O   0  0  0  0  0  0  0  0  0  0  0  0
    6.8389   -0.3489   21.1515 C   0  0  0  0  0  0  0  0  0  0  0  0
    5.8936   -0.1621   20.0055 C   0  0  0  0  0  0  0  0  0  0  0  0
    6.1651   -0.7049   18.7777 C   0  0  0  0  0  0  0  0  0  0  0  0
    5.3942   -0.5589   17.6699 N   0  0  0  0  0  0  0  0  0  0  0  0
    4.3021    0.1550   17.8075 C   0  0  0  0  0  0  0  0  0  0  0  0
    3.8990    0.7901   19.0166 C   0  0  0  0  0  0  0  0  0  0  0  0
    2.7224    1.5785   19.1062 C   0  0  0  0  0  0  0  0  0  0  0  0
    2.3681    2.1622   20.2926 C   0  0  0  0  0  0  0  0  0  0  0  0
    3.1815    2.0023   21.4397 C   0  0  0  0  0  0  0  0  0  0  0  0
    4.3371    1.2647   21.3742 C   0  0  0  0  0  0  0  0  0  0  0  0
    4.7200    0.6317   20.1572 C   0  0  0  0  0  0  0  0  0  0  0  0
    8.4335    3.4795   23.5269 C   0  0  0  0  0  0  0  0  0  0  0  0
    9.1780    4.6430   23.5796 C   0  0  0  0  0  0  0  0  0  0  0  0
   11.0113    8.1652   22.5822 H   0  0  0  0  0  0  0  0  0  0  0  0
   10.1372    7.0862   21.4867 H   0  0  0  0  0  0  0  0  0  0  0  0
    9.4995    7.4164   23.1138 H   0  0  0  0  0  0  0  0  0  0  0  0
   10.6642    6.2011   25.1564 H   0  0  0  0  0  0  0  0  0  0  0  0
   12.0709    7.1660   24.7420 H   0  0  0  0  0  0  0  0  0  0  0  0
   12.1977    5.3635   24.8725 H   0  0  0  0  0  0  0  0  0  0  0  0
   11.8804    3.6646   21.7587 H   0  0  0  0  0  0  0  0  0  0  0  0
   10.4762    1.5841   21.6344 H   0  0  0  0  0  0  0  0  0  0  0  0
    8.2717    0.9636   24.6904 H   0  0  0  0  0  0  0  0  0  0  0  0
    6.8582    0.1523   24.0054 H   0  0  0  0  0  0  0  0  0  0  0  0
   10.5515    0.2043   23.3015 H   0  0  0  0  0  0  0  0  0  0  0  0
   11.9190   -1.8369   23.0731 H   0  0  0  0  0  0  0  0  0  0  0  0
   10.8761   -4.0617   23.3601 H   0  0  0  0  0  0  0  0  0  0  0  0
    7.0478   -2.2308   23.8607 H   0  0  0  0  0  0  0  0  0  0  0  0
    7.5149   -1.1839   20.9367 H   0  0  0  0  0  0  0  0  0  0  0  0
    6.2969   -0.6178   22.0584 H   0  0  0  0  0  0  0  0  0  0  0  0
    7.0700   -1.2963   18.6300 H   0  0  0  0  0  0  0  0  0  0  0  0
    3.6692    0.2562   16.9267 H   0  0  0  0  0  0  0  0  0  0  0  0
    2.1252    1.7231   18.2093 H   0  0  0  0  0  0  0  0  0  0  0  0
    1.4679    2.7675   20.3568 H   0  0  0  0  0  0  0  0  0  0  0  0
    2.8915    2.4694   22.3786 H   0  0  0  0  0  0  0  0  0  0  0  0
    4.9647    1.1699   22.2585 H   0  0  0  0  0  0  0  0  0  0  0  0
    7.4868    3.3758   24.0410 H   0  0  0  0  0  0  0  0  0  0  0  0
    8.7890    5.4735   24.1598 H   0  0  0  0  0  0  0  0  0  0  0  0
  1  2  1  0
  2  3  1  0
  2  4  1  0
  4  5  3  0
  2  6  1  0
  6  7  2  0
  7  8  1  0
  8  9  2  0
  9 10  1  0
 10 11  1  0
 11 12  1  0
 12 13  2  0
 13 14  1  0
 14 15  2  0
 15 16  1  0
 16 17  1  0
 16 18  2  0
 10 19  1  0
 19 20  2  0
 19 21  1  0
 21 22  1  0
 22 23  2  0
 23 24  1  0
 24 25  2  0
 25 26  1  0
 26 27  2  0
 27 28  1  0
 28 29  2  0
 29 30  1  0
 30 31  2  0
  9 32  1  0
 32 33  2  0
 33  6  1  0
 18 12  1  0
 31 22  1  0
 31 26  1  0
  1 34  1  0
  1 35  1  0
  1 36  1  0
  3 37  1  0
  3 38  1  0
  3 39  1  0
  7 40  1  0
  8 41  1  0
 11 42  1  0
 11 43  1  0
 13 44  1  0
 14 45  1  0
 15 46  1  0
 18 47  1  0
 21 48  1  0
 21 49  1  0
 23 50  1  0
 25 51  1  0
 27 52  1  0
 28 53  1  0
 29 54  1  0
 30 55  1  0
 32 56  1  0
 33 57  1  0
M  END
$$$$
