
     RDKit          3D

 67 71  0  0  0  0  0  0  0  0999 V2000
   -7.0192    3.6324  -22.4815 C   0  0  0  0  0  0  0  0  0  0  0  0
   -7.7843    2.6799  -23.2609 N   0  0  0  0  0  0  0  0  0  0  0  0
   -7.4940    2.5202  -24.5694 C   0  0  0  0  0  0  0  0  0  0  0  0
   -6.7241    3.2489  -25.1889 O   0  0  0  0  0  0  0  0  0  0  0  0
   -8.1628    1.3642  -25.3185 C   0  0  0  0  0  0  0  0  0  0  0  0
   -8.9888    0.4752  -24.5421 N   0  0  0  0  0  0  0  0  0  0  0  0
   -8.5306   -0.8794  -24.2836 C   0  0  0  0  0  0  0  0  0  0  0  0
   -9.0832   -1.4203  -22.9404 C   0  0  2  0  0  0  0  0  0  0  0  0
   -8.4767   -0.5824  -21.7864 C   0  0  0  0  0  0  0  0  0  0  0  0
   -8.7579    0.5680  -21.5130 O   0  0  0  0  0  0  0  0  0  0  0  0
   -7.5190   -1.3272  -21.1408 N   0  0  0  0  0  0  0  0  0  0  0  0
   -6.6659   -0.7989  -20.1253 C   0  0  0  0  0  0  0  0  0  0  0  0
   -6.8894   -1.1532  -18.8175 C   0  0  0  0  0  0  0  0  0  0  0  0
   -6.1196   -0.7694  -17.7687 N   0  0  0  0  0  0  0  0  0  0  0  0
   -5.0940    0.0068  -18.0183 C   0  0  0  0  0  0  0  0  0  0  0  0
   -4.7492    0.4662  -19.3215 C   0  0  0  0  0  0  0  0  0  0  0  0
   -3.6648    1.3596  -19.5308 C   0  0  0  0  0  0  0  0  0  0  0  0
   -3.3313    1.7577  -20.7946 C   0  0  0  0  0  0  0  0  0  0  0  0
   -4.0605    1.2830  -21.9076 C   0  0  0  0  0  0  0  0  0  0  0  0
   -5.1417    0.4535  -21.7274 C   0  0  0  0  0  0  0  0  0  0  0  0
   -5.5351    0.0375  -20.4228 C   0  0  0  0  0  0  0  0  0  0  0  0
   -7.2433   -2.5794  -21.8173 C   0  0  0  0  0  0  0  0  0  0  0  0
   -8.5495   -2.8330  -22.5825 C   0  0  2  0  0  0  0  0  0  0  0  0
   -8.3353   -3.8320  -23.7085 C   0  0  0  0  0  0  0  0  0  0  0  0
   -9.8382   -4.4459  -24.4738 S   0  0  0  0  0  0  0  0  0  0  0  0
  -10.5928   -5.1712  -23.4606 O   0  0  0  0  0  0  0  0  0  0  0  0
  -10.4810   -3.4167  -25.2697 O   0  0  0  0  0  0  0  0  0  0  0  0
   -9.2367   -5.5459  -25.5622 N   0  0  0  0  0  0  0  0  0  0  0  0
   -8.6533   -5.0242  -26.7856 C   0  0  0  0  0  0  0  0  0  0  0  0
   -8.6499   -6.7660  -25.0448 C   0  0  0  0  0  0  0  0  0  0  0  0
  -10.5912   -1.2808  -23.0220 C   0  0  0  0  0  0  0  0  0  0  0  0
  -11.4830   -2.2326  -22.5186 C   0  0  0  0  0  0  0  0  0  0  0  0
  -12.8338   -1.9448  -22.5025 C   0  0  0  0  0  0  0  0  0  0  0  0
  -13.6624   -2.8319  -21.9252 F   0  0  0  0  0  0  0  0  0  0  0  0
  -13.3776   -0.7756  -23.0215 C   0  0  0  0  0  0  0  0  0  0  0  0
  -12.5054    0.1344  -23.5813 C   0  0  0  0  0  0  0  0  0  0  0  0
  -11.1366   -0.1241  -23.6014 C   0  0  0  0  0  0  0  0  0  0  0  0
  -10.2560    0.8933  -24.2498 C   0  0  0  0  0  0  0  0  0  0  0  0
  -10.6377    2.0321  -24.4864 O   0  0  0  0  0  0  0  0  0  0  0  0
   -7.1451    3.3857  -21.4231 H   0  0  0  0  0  0  0  0  0  0  0  0
   -5.9606    3.5559  -22.7450 H   0  0  0  0  0  0  0  0  0  0  0  0
   -7.3211    4.6731  -22.6482 H   0  0  0  0  0  0  0  0  0  0  0  0
   -8.3056    1.9772  -22.7422 H   0  0  0  0  0  0  0  0  0  0  0  0
   -7.3540    0.7890  -25.7750 H   0  0  0  0  0  0  0  0  0  0  0  0
   -8.7457    1.7997  -26.1354 H   0  0  0  0  0  0  0  0  0  0  0  0
   -7.4363   -0.8717  -24.2483 H   0  0  0  0  0  0  0  0  0  0  0  0
   -8.8589   -1.5429  -25.0928 H   0  0  0  0  0  0  0  0  0  0  0  0
   -7.7458   -1.7782  -18.5676 H   0  0  0  0  0  0  0  0  0  0  0  0
   -4.4891    0.3371  -17.1721 H   0  0  0  0  0  0  0  0  0  0  0  0
   -3.1147    1.7174  -18.6628 H   0  0  0  0  0  0  0  0  0  0  0  0
   -2.5058    2.4437  -20.9534 H   0  0  0  0  0  0  0  0  0  0  0  0
   -3.7879    1.6076  -22.9098 H   0  0  0  0  0  0  0  0  0  0  0  0
   -5.7079    0.1178  -22.5922 H   0  0  0  0  0  0  0  0  0  0  0  0
   -7.0089   -3.3532  -21.0813 H   0  0  0  0  0  0  0  0  0  0  0  0
   -6.3880   -2.4925  -22.5113 H   0  0  0  0  0  0  0  0  0  0  0  0
   -9.2434   -3.2720  -21.8623 H   0  0  0  0  0  0  0  0  0  0  0  0
   -7.8136   -4.7218  -23.3442 H   0  0  0  0  0  0  0  0  0  0  0  0
   -7.7216   -3.4075  -24.5027 H   0  0  0  0  0  0  0  0  0  0  0  0
   -8.6653   -5.8232  -27.5298 H   0  0  0  0  0  0  0  0  0  0  0  0
   -9.2719   -4.2032  -27.1454 H   0  0  0  0  0  0  0  0  0  0  0  0
   -7.6136   -4.6760  -26.6804 H   0  0  0  0  0  0  0  0  0  0  0  0
   -8.7673   -7.5492  -25.7978 H   0  0  0  0  0  0  0  0  0  0  0  0
   -9.1875   -7.0557  -24.1499 H   0  0  0  0  0  0  0  0  0  0  0  0
   -7.5834   -6.6873  -24.7877 H   0  0  0  0  0  0  0  0  0  0  0  0
  -11.1723   -3.1995  -22.1367 H   0  0  0  0  0  0  0  0  0  0  0  0
  -14.4488   -0.6077  -22.9609 H   0  0  0  0  0  0  0  0  0  0  0  0
  -12.8608    1.0655  -24.0074 H   0  0  0  0  0  0  0  0  0  0  0  0
  1  2  1  0
  2  3  1  0
  3  4  2  0
  3  5  1  0
  5  6  1  0
  6  7  1  0
  8  7  1  6
  8  9  1  0
  9 10  2  0
  9 11  1  0
 11 12  1  0
 12 13  2  0
 13 14  1  0
 14 15  2  0
 15 16  1  0
 16 17  2  0
 17 18  1  0
 18 19  2  0
 19 20  1  0
 20 21  2  0
 11 22  1  0
 22 23  1  0
 23 24  1  0
 24 25  1  0
 25 26  2  0
 25 27  2  0
 25 28  1  0
 28 29  1  0
 28 30  1  0
  8 31  1  0
 31 32  2  0
 32 33  1  0
 33 34  1  0
 33 35  2  0
 35 36  1  0
 36 37  2  0
 37 38  1  0
 38 39  2  0
 38  6  1  0
 23  8  1  0
 37 31  1  0
 21 12  1  0
 21 16  1  0
  1 40  1  0
  1 41  1  0
  1 42  1  0
  2 43  1  0
  5 44  1  0
  5 45  1  0
  7 46  1  0
  7 47  1  0
 13 48  1  0
 15 49  1  0
 17 50  1  0
 18 51  1  0
 19 52  1  0
 20 53  1  0
 22 54  1  0
 22 55  1  0
 23 56  1  1
 24 57  1  0
 24 58  1  0
 29 59  1  0
 29 60  1  0
 29 61  1  0
 30 62  1  0
 30 63  1  0
 30 64  1  0
 32 65  1  0
 35 66  1  0
 36 67  1  0
M  END
