
     RDKit          3D

 67 71  0  0  0  0  0  0  0  0999 V2000
    7.2896    4.6543   22.3753 C   0  0  0  0  0  0  0  0  0  0  0  0
    8.0979    3.7362   23.1523 N   0  0  0  0  0  0  0  0  0  0  0  0
    7.8408    3.5898   24.4693 C   0  0  0  0  0  0  0  0  0  0  0  0
    7.0644    4.3068   25.0943 O   0  0  0  0  0  0  0  0  0  0  0  0
    8.5579    2.4650   25.2213 C   0  0  0  0  0  0  0  0  0  0  0  0
    9.3914    1.5868   24.4407 N   0  0  0  0  0  0  0  0  0  0  0  0
    8.9658    0.2160   24.2137 C   0  0  0  0  0  0  0  0  0  0  0  0
    9.5040   -0.3312   22.8672 C   0  0  2  0  0  0  0  0  0  0  0  0
    8.8493    0.4708   21.7140 C   0  0  0  0  0  0  0  0  0  0  0  0
    9.0921    1.6239   21.4164 O   0  0  0  0  0  0  0  0  0  0  0  0
    7.8990   -0.3107   21.1015 N   0  0  0  0  0  0  0  0  0  0  0  0
    7.0095    0.1772   20.0971 C   0  0  0  0  0  0  0  0  0  0  0  0
    7.2143   -0.1919   18.7903 C   0  0  0  0  0  0  0  0  0  0  0  0
    6.4114    0.1533   17.7530 N   0  0  0  0  0  0  0  0  0  0  0  0
    5.3702    0.9048   18.0132 C   0  0  0  0  0  0  0  0  0  0  0  0
    5.0411    1.3756   19.3164 C   0  0  0  0  0  0  0  0  0  0  0  0
    3.9368    2.2419   19.5357 C   0  0  0  0  0  0  0  0  0  0  0  0
    3.6199    2.6511   20.8002 C   0  0  0  0  0  0  0  0  0  0  0  0
    4.3862    2.2149   21.9041 C   0  0  0  0  0  0  0  0  0  0  0  0
    5.4860    1.4128   21.7129 C   0  0  0  0  0  0  0  0  0  0  0  0
    5.8625    0.9867   20.4065 C   0  0  0  0  0  0  0  0  0  0  0  0
    7.6733   -1.5589   21.8035 C   0  0  0  0  0  0  0  0  0  0  0  0
    9.0025   -1.7637   22.5433 C   0  0  2  0  0  0  0  0  0  0  0  0
    8.8409   -2.7499   23.6893 C   0  0  0  0  0  0  0  0  0  0  0  0
   10.3768   -3.3094   24.4305 S   0  0  0  0  0  0  0  0  0  0  0  0
   11.1292   -4.0299   23.4123 O   0  0  0  0  0  0  0  0  0  0  0  0
   11.0076   -2.2500   25.1957 O   0  0  0  0  0  0  0  0  0  0  0  0
    9.8302   -4.4078   25.5491 N   0  0  0  0  0  0  0  0  0  0  0  0
    9.2591   -3.8827   26.7768 C   0  0  0  0  0  0  0  0  0  0  0  0
    9.2667   -5.6519   25.0639 C   0  0  0  0  0  0  0  0  0  0  0  0
   11.0089   -0.1487   22.9130 C   0  0  0  0  0  0  0  0  0  0  0  0
   11.9159   -1.0834   22.4049 C   0  0  0  0  0  0  0  0  0  0  0  0
   13.2574   -0.7586   22.3543 C   0  0  0  0  0  0  0  0  0  0  0  0
   14.0978   -1.6317   21.7727 F   0  0  0  0  0  0  0  0  0  0  0  0
   13.7794    0.4334   22.8428 C   0  0  0  0  0  0  0  0  0  0  0  0
   12.8944    1.3279   23.4075 C   0  0  0  0  0  0  0  0  0  0  0  0
   11.5341    1.0320   23.4620 C   0  0  0  0  0  0  0  0  0  0  0  0
   10.6397    2.0350   24.1139 C   0  0  0  0  0  0  0  0  0  0  0  0
   10.9944    3.1876   24.3241 O   0  0  0  0  0  0  0  0  0  0  0  0
    7.3993    4.3940   21.3184 H   0  0  0  0  0  0  0  0  0  0  0  0
    6.2396    4.5528   22.6634 H   0  0  0  0  0  0  0  0  0  0  0  0
    7.5658    5.7056   22.5190 H   0  0  0  0  0  0  0  0  0  0  0  0
    8.6273    3.0398   22.6332 H   0  0  0  0  0  0  0  0  0  0  0  0
    7.7756    1.8751   25.7046 H   0  0  0  0  0  0  0  0  0  0  0  0
    9.1460    2.9297   26.0181 H   0  0  0  0  0  0  0  0  0  0  0  0
    7.8712    0.1928   24.2026 H   0  0  0  0  0  0  0  0  0  0  0  0
    9.3301   -0.4250   25.0257 H   0  0  0  0  0  0  0  0  0  0  0  0
    8.0823   -0.7969   18.5313 H   0  0  0  0  0  0  0  0  0  0  0  0
    4.7380    1.2044   17.1756 H   0  0  0  0  0  0  0  0  0  0  0  0
    3.3582    2.5702   18.6747 H   0  0  0  0  0  0  0  0  0  0  0  0
    2.7791    3.3164   20.9666 H   0  0  0  0  0  0  0  0  0  0  0  0
    4.1265    2.5480   22.9069 H   0  0  0  0  0  0  0  0  0  0  0  0
    6.0801    1.1070   22.5700 H   0  0  0  0  0  0  0  0  0  0  0  0
    7.4447   -2.3507   21.0850 H   0  0  0  0  0  0  0  0  0  0  0  0
    6.8312   -1.4844   22.5148 H   0  0  0  0  0  0  0  0  0  0  0  0
    9.6926   -2.1950   21.8148 H   0  0  0  0  0  0  0  0  0  0  0  0
    8.3366   -3.6596   23.3506 H   0  0  0  0  0  0  0  0  0  0  0  0
    8.2330   -2.3297   24.4902 H   0  0  0  0  0  0  0  0  0  0  0  0
    9.3097   -4.6688   27.5330 H   0  0  0  0  0  0  0  0  0  0  0  0
    9.8622   -3.0391   27.1099 H   0  0  0  0  0  0  0  0  0  0  0  0
    8.2080   -3.5651   26.6893 H   0  0  0  0  0  0  0  0  0  0  0  0
    9.4224   -6.4192   25.8263 H   0  0  0  0  0  0  0  0  0  0  0  0
    9.7926   -5.9411   24.1620 H   0  0  0  0  0  0  0  0  0  0  0  0
    8.1931   -5.6070   24.8294 H   0  0  0  0  0  0  0  0  0  0  0  0
   11.6242   -2.0646   22.0452 H   0  0  0  0  0  0  0  0  0  0  0  0
   14.8439    0.6299   22.7558 H   0  0  0  0  0  0  0  0  0  0  0  0
   13.2327    2.2753   23.8110 H   0  0  0  0  0  0  0  0  0  0  0  0
  1  2  1  0
  2  3  1  0
  3  4  2  0
  3  5  1  0
  5  6  1  0
  6  7  1  0
  8  7  1  1
  8  9  1  0
  9 10  2  0
  9 11  1  0
 11 12  1  0
 12 13  2  0
 13 14  1  0
 14 15  2  0
 15 16  1  0
 16 17  2  0
 17 18  1  0
 18 19  2  0
 19 20  1  0
 20 21  2  0
 11 22  1  0
 22 23  1  0
 23 24  1  0
 24 25  1  0
 25 26  2  0
 25 27  2  0
 25 28  1  0
 28 29  1  0
 28 30  1  0
  8 31  1  0
 31 32  2  0
 32 33  1  0
 33 34  1  0
 33 35  2  0
 35 36  1  0
 36 37  2  0
 37 38  1  0
 38 39  2  0
 38  6  1  0
 23  8  1  0
 37 31  1  0
 21 12  1  0
 21 16  1  0
  1 40  1  0
  1 41  1  0
  1 42  1  0
  2 43  1  0
  5 44  1  0
  5 45  1  0
  7 46  1  0
  7 47  1  0
 13 48  1  0
 15 49  1  0
 17 50  1  0
 18 51  1  0
 19 52  1  0
 20 53  1  0
 22 54  1  0
 22 55  1  0
 23 56  1  6
 24 57  1  0
 24 58  1  0
 29 59  1  0
 29 60  1  0
 29 61  1  0
 30 62  1  0
 30 63  1  0
 30 64  1  0
 32 65  1  0
 35 66  1  0
 36 67  1  0
M  END
$$$$
