
     RDKit          3D

 51 54  0  0  0  0  0  0  0  0999 V2000
   11.1377    7.9631   21.3929 N   0  0  0  0  0  0  0  0  0  0  0  0
   10.2876    7.5573   22.0625 C   0  0  0  0  0  0  0  0  0  0  0  0
    9.1502    7.0722   22.8662 C   0  0  0  0  0  0  0  0  0  0  0  0
    8.8460    5.5939   22.6675 C   0  0  0  0  0  0  0  0  0  0  0  0
    9.7284    4.6451   23.1890 C   0  0  0  0  0  0  0  0  0  0  0  0
    9.4509    3.2830   23.1162 C   0  0  0  0  0  0  0  0  0  0  0  0
    8.2863    2.8353   22.4859 C   0  0  0  0  0  0  0  0  0  0  0  0
    7.9633    1.4417   22.4483 N   0  0  0  0  0  0  0  0  0  0  0  0
    7.9005    0.6838   23.6951 C   0  0  0  0  0  0  0  0  0  0  0  0
    6.5705    0.7962   24.4143 C   0  0  0  0  0  0  0  0  0  0  0  0
    6.1574    2.0379   24.8963 C   0  0  0  0  0  0  0  0  0  0  0  0
    4.9287    2.1730   25.5321 C   0  0  0  0  0  0  0  0  0  0  0  0
    4.0878    1.0779   25.6998 C   0  0  0  0  0  0  0  0  0  0  0  0
    4.5174   -0.1598   25.2405 C   0  0  0  0  0  0  0  0  0  0  0  0
    3.4855   -1.5494   25.4281 Cl  0  0  0  0  0  0  0  0  0  0  0  0
    5.7495   -0.3135   24.6147 C   0  0  0  0  0  0  0  0  0  0  0  0
    7.7066    0.8886   21.2003 C   0  0  0  0  0  0  0  0  0  0  0  0
    8.1404    1.3919   20.1854 O   0  0  0  0  0  0  0  0  0  0  0  0
    6.8602   -0.3815   21.0991 C   0  0  0  0  0  0  0  0  0  0  0  0
    5.8596   -0.2296   19.9814 C   0  0  0  0  0  0  0  0  0  0  0  0
    6.0788   -0.7946   18.7519 C   0  0  0  0  0  0  0  0  0  0  0  0
    5.2887   -0.6318   17.6577 N   0  0  0  0  0  0  0  0  0  0  0  0
    4.2163    0.1077   17.8067 C   0  0  0  0  0  0  0  0  0  0  0  0
    3.8501    0.7472   19.0244 C   0  0  0  0  0  0  0  0  0  0  0  0
    2.6736    1.5301   19.1410 C   0  0  0  0  0  0  0  0  0  0  0  0
    2.3396    2.1196   20.3261 C   0  0  0  0  0  0  0  0  0  0  0  0
    3.2058    1.9974   21.4375 C   0  0  0  0  0  0  0  0  0  0  0  0
    4.3715    1.2771   21.3448 C   0  0  0  0  0  0  0  0  0  0  0  0
    4.7063    0.5963   20.1425 C   0  0  0  0  0  0  0  0  0  0  0  0
    7.4114    3.7799   21.9347 C   0  0  0  0  0  0  0  0  0  0  0  0
    7.6811    5.1444   22.0471 C   0  0  0  0  0  0  0  0  0  0  0  0
    9.4004    7.2392   23.9181 H   0  0  0  0  0  0  0  0  0  0  0  0
    8.2782    7.6996   22.6412 H   0  0  0  0  0  0  0  0  0  0  0  0
   10.6265    4.9720   23.7089 H   0  0  0  0  0  0  0  0  0  0  0  0
   10.1293    2.5642   23.5773 H   0  0  0  0  0  0  0  0  0  0  0  0
    8.1414   -0.3606   23.4899 H   0  0  0  0  0  0  0  0  0  0  0  0
    8.6920    1.0563   24.3501 H   0  0  0  0  0  0  0  0  0  0  0  0
    6.7997    2.9047   24.7528 H   0  0  0  0  0  0  0  0  0  0  0  0
    4.6198    3.1462   25.8996 H   0  0  0  0  0  0  0  0  0  0  0  0
    3.1186    1.1775   26.1796 H   0  0  0  0  0  0  0  0  0  0  0  0
    6.0429   -1.3064   24.2802 H   0  0  0  0  0  0  0  0  0  0  0  0
    7.5468   -1.2056   20.8621 H   0  0  0  0  0  0  0  0  0  0  0  0
    6.3691   -0.6113   22.0471 H   0  0  0  0  0  0  0  0  0  0  0  0
    6.9555   -1.4239   18.5989 H   0  0  0  0  0  0  0  0  0  0  0  0
    3.5596    0.2183   16.9403 H   0  0  0  0  0  0  0  0  0  0  0  0
    2.0553    1.6698   18.2600 H   0  0  0  0  0  0  0  0  0  0  0  0
    1.4192    2.6899   20.4222 H   0  0  0  0  0  0  0  0  0  0  0  0
    2.9460    2.4894   22.3703 H   0  0  0  0  0  0  0  0  0  0  0  0
    5.0418    1.2457   22.2024 H   0  0  0  0  0  0  0  0  0  0  0  0
    6.4776    3.4499   21.4734 H   0  0  0  0  0  0  0  0  0  0  0  0
    6.9646    5.8602   21.6419 H   0  0  0  0  0  0  0  0  0  0  0  0
  1  2  3  0
  2  3  1  0
  3  4  1  0
  4  5  2  0
  5  6  1  0
  6  7  2  0
  7  8  1  0
  8  9  1  0
  9 10  1  0
 10 11  2  0
 11 12  1  0
 12 13  2  0
 13 14  1  0
 14 15  1  0
 14 16  2  0
  8 17  1  0
 17 18  2  0
 17 19  1  0
 19 20  1  0
 20 21  2  0
 21 22  1  0
 22 23  2  0
 23 24  1  0
 24 25  2  0
 25 26  1  0
 26 27  2  0
 27 28  1  0
 28 29  2  0
  7 30  1  0
 30 31  2  0
 31  4  1  0
 16 10  1  0
 29 20  1  0
 29 24  1  0
  3 32  1  0
  3 33  1  0
  5 34  1  0
  6 35  1  0
  9 36  1  0
  9 37  1  0
 11 38  1  0
 12 39  1  0
 13 40  1  0
 16 41  1  0
 19 42  1  0
 19 43  1  0
 21 44  1  0
 23 45  1  0
 25 46  1  0
 26 47  1  0
 27 48  1  0
 28 49  1  0
 30 50  1  0
 31 51  1  0
M  END
$$$$
