
     RDKit          3D

 56 61  0  0  0  0  0  0  0  0999 V2000
   -8.4233   -3.8398  -23.7042 C   0  0  0  0  0  0  0  0  0  0  0  0
   -8.5219   -2.8451  -22.5579 C   0  0  1  0  0  0  0  0  0  0  0  0
   -7.2100   -2.5868  -21.8088 C   0  0  0  0  0  0  0  0  0  0  0  0
   -7.4909   -1.3363  -21.1338 N   0  0  0  0  0  0  0  0  0  0  0  0
   -6.6483   -0.8135  -20.1139 C   0  0  0  0  0  0  0  0  0  0  0  0
   -6.8702   -1.1695  -18.8070 C   0  0  0  0  0  0  0  0  0  0  0  0
   -6.0918   -0.7965  -17.7620 N   0  0  0  0  0  0  0  0  0  0  0  0
   -5.0644   -0.0252  -18.0155 C   0  0  0  0  0  0  0  0  0  0  0  0
   -4.7315    0.4448  -19.3192 C   0  0  0  0  0  0  0  0  0  0  0  0
   -3.6526    1.3429  -19.5259 C   0  0  0  0  0  0  0  0  0  0  0  0
   -3.3348    1.7597  -20.7901 C   0  0  0  0  0  0  0  0  0  0  0  0
   -4.0711    1.2905  -21.9020 C   0  0  0  0  0  0  0  0  0  0  0  0
   -5.1380    0.4473  -21.7201 C   0  0  0  0  0  0  0  0  0  0  0  0
   -5.5167    0.0178  -20.4140 C   0  0  0  0  0  0  0  0  0  0  0  0
   -8.4580   -0.5837  -21.7800 C   0  0  0  0  0  0  0  0  0  0  0  0
   -8.7595    0.5444  -21.4782 O   0  0  0  0  0  0  0  0  0  0  0  0
   -9.0454   -1.4384  -22.9392 C   0  0  1  0  0  0  0  0  0  0  0  0
   -8.4860   -0.9244  -24.2915 C   0  0  0  0  0  0  0  0  0  0  0  0
   -8.9099    0.4413  -24.5494 N   0  0  0  0  0  0  0  0  0  0  0  0
   -8.0373    1.3312  -25.2978 C   0  0  0  0  0  0  0  0  0  0  0  0
   -8.1040    1.1095  -26.7915 C   0  0  0  0  0  0  0  0  0  0  0  0
   -8.5184    1.9880  -27.8223 C   0  0  0  0  0  0  0  0  0  0  0  0
   -8.3593    1.2659  -28.9825 C   0  0  0  0  0  0  0  0  0  0  0  0
   -7.8740    0.0536  -28.6191 N   0  0  0  0  0  0  0  0  0  0  0  0
   -7.7023   -0.0607  -27.2935 N   0  0  0  0  0  0  0  0  0  0  0  0
  -10.1674    0.8861  -24.2472 C   0  0  0  0  0  0  0  0  0  0  0  0
  -10.5370    2.0341  -24.4653 O   0  0  0  0  0  0  0  0  0  0  0  0
  -11.0773   -0.1320  -23.6270 C   0  0  0  0  0  0  0  0  0  0  0  0
  -12.4455    0.1385  -23.6106 C   0  0  0  0  0  0  0  0  0  0  0  0
  -13.3276   -0.7786  -23.0758 C   0  0  0  0  0  0  0  0  0  0  0  0
  -12.8048   -1.9691  -22.5832 C   0  0  0  0  0  0  0  0  0  0  0  0
  -13.6542   -2.8636  -22.0506 F   0  0  0  0  0  0  0  0  0  0  0  0
  -11.4564   -2.2667  -22.5961 C   0  0  0  0  0  0  0  0  0  0  0  0
  -10.5543   -1.3060  -23.0654 C   0  0  0  0  0  0  0  0  0  0  0  0
   -7.6790   -3.5078  -24.4384 H   0  0  0  0  0  0  0  0  0  0  0  0
   -8.1301   -4.8347  -23.3537 H   0  0  0  0  0  0  0  0  0  0  0  0
   -9.3862   -3.9229  -24.2203 H   0  0  0  0  0  0  0  0  0  0  0  0
   -9.2105   -3.2280  -21.7945 H   0  0  0  0  0  0  0  0  0  0  0  0
   -6.3547   -2.4992  -22.5049 H   0  0  0  0  0  0  0  0  0  0  0  0
   -6.9715   -3.3639  -21.0769 H   0  0  0  0  0  0  0  0  0  0  0  0
   -7.7307   -1.7905  -18.5571 H   0  0  0  0  0  0  0  0  0  0  0  0
   -4.4450    0.2869  -17.1756 H   0  0  0  0  0  0  0  0  0  0  0  0
   -3.1017    1.6977  -18.6599 H   0  0  0  0  0  0  0  0  0  0  0  0
   -2.5167    2.4541  -20.9459 H   0  0  0  0  0  0  0  0  0  0  0  0
   -3.7944    1.6115  -22.9020 H   0  0  0  0  0  0  0  0  0  0  0  0
   -5.7129    0.1136  -22.5809 H   0  0  0  0  0  0  0  0  0  0  0  0
   -8.8333   -1.5860  -25.0983 H   0  0  0  0  0  0  0  0  0  0  0  0
   -7.3920   -0.9619  -24.3024 H   0  0  0  0  0  0  0  0  0  0  0  0
   -7.0119    1.1659  -24.9330 H   0  0  0  0  0  0  0  0  0  0  0  0
   -8.3322    2.3518  -25.0336 H   0  0  0  0  0  0  0  0  0  0  0  0
   -8.8908    3.0029  -27.7420 H   0  0  0  0  0  0  0  0  0  0  0  0
   -8.5150    1.5415  -30.0127 H   0  0  0  0  0  0  0  0  0  0  0  0
   -7.6828   -0.7556  -29.1869 H   0  0  0  0  0  0  0  0  0  0  0  0
  -12.7919    1.0851  -24.0089 H   0  0  0  0  0  0  0  0  0  0  0  0
  -14.3979   -0.5997  -23.0212 H   0  0  0  0  0  0  0  0  0  0  0  0
  -11.1412   -3.2343  -22.2161 H   0  0  0  0  0  0  0  0  0  0  0  0
  1  2  1  0
  2  3  1  0
  3  4  1  0
  4  5  1  0
  5  6  2  0
  6  7  1  0
  7  8  2  0
  8  9  1  0
  9 10  2  0
 10 11  1  0
 11 12  2  0
 12 13  1  0
 13 14  2  0
  4 15  1  0
 15 16  2  0
 15 17  1  0
 17 18  1  6
 18 19  1  0
 19 20  1  0
 20 21  1  0
 21 22  1  0
 22 23  2  0
 23 24  1  0
 24 25  1  0
 19 26  1  0
 26 27  2  0
 26 28  1  0
 28 29  2  0
 29 30  1  0
 30 31  2  0
 31 32  1  0
 31 33  1  0
 33 34  2  0
 17  2  1  0
 25 21  2  0
 34 28  1  0
 14  5  1  0
 34 17  1  0
 14  9  1  0
  1 35  1  0
  1 36  1  0
  1 37  1  0
  2 38  1  1
  3 39  1  0
  3 40  1  0
  6 41  1  0
  8 42  1  0
 10 43  1  0
 11 44  1  0
 12 45  1  0
 13 46  1  0
 18 47  1  0
 18 48  1  0
 20 49  1  0
 20 50  1  0
 22 51  1  0
 23 52  1  0
 24 53  1  0
 29 54  1  0
 30 55  1  0
 33 56  1  0
M  END
