
     RDKit          3D

 56 61  0  0  0  0  0  0  0  0999 V2000
    8.9290   -2.7553   23.6831 C   0  0  0  0  0  0  0  0  0  0  0  0
    8.9747   -1.7770   22.5195 C   0  0  1  0  0  0  0  0  0  0  0  0
    7.6401   -1.5673   21.7958 C   0  0  0  0  0  0  0  0  0  0  0  0
    7.8710   -0.3206   21.0953 N   0  0  0  0  0  0  0  0  0  0  0  0
    6.9921    0.1620   20.0863 C   0  0  0  0  0  0  0  0  0  0  0  0
    7.1954   -0.2089   18.7805 C   0  0  0  0  0  0  0  0  0  0  0  0
    6.3843    0.1254   17.7474 N   0  0  0  0  0  0  0  0  0  0  0  0
    5.3414    0.8719   18.0115 C   0  0  0  0  0  0  0  0  0  0  0  0
    5.0239    1.3536   19.3148 C   0  0  0  0  0  0  0  0  0  0  0  0
    3.9250    2.2248   19.5314 C   0  0  0  0  0  0  0  0  0  0  0  0
    3.6232    2.6531   20.7956 C   0  0  0  0  0  0  0  0  0  0  0  0
    4.3964    2.2226   21.8981 C   0  0  0  0  0  0  0  0  0  0  0  0
    5.4824    1.4064   21.7058 C   0  0  0  0  0  0  0  0  0  0  0  0
    5.8444    0.9664   20.3984 C   0  0  0  0  0  0  0  0  0  0  0  0
    8.8305    0.4688   21.7080 C   0  0  0  0  0  0  0  0  0  0  0  0
    9.0936    1.5998   21.3820 O   0  0  0  0  0  0  0  0  0  0  0  0
    9.4667   -0.3503   22.8671 C   0  0  1  0  0  0  0  0  0  0  0  0
    8.9227    0.1699   24.2233 C   0  0  0  0  0  0  0  0  0  0  0  0
    9.3136    1.5508   24.4503 N   0  0  0  0  0  0  0  0  0  0  0  0
    8.4329    2.4282   25.2039 C   0  0  0  0  0  0  0  0  0  0  0  0
    8.5383    2.2328   26.6990 C   0  0  0  0  0  0  0  0  0  0  0  0
    8.9503    3.1390   27.7065 C   0  0  0  0  0  0  0  0  0  0  0  0
    8.8368    2.4317   28.8811 C   0  0  0  0  0  0  0  0  0  0  0  0
    8.3779    1.2007   28.5476 N   0  0  0  0  0  0  0  0  0  0  0  0
    8.1806    1.0602   27.2281 N   0  0  0  0  0  0  0  0  0  0  0  0
   10.5513    2.0253   24.1133 C   0  0  0  0  0  0  0  0  0  0  0  0
   10.8932    3.1865   24.3052 O   0  0  0  0  0  0  0  0  0  0  0  0
   11.4757    1.0228   23.4891 C   0  0  0  0  0  0  0  0  0  0  0  0
   12.8351    1.3308   23.4381 C   0  0  0  0  0  0  0  0  0  0  0  0
   13.7307    0.4299   22.8982 C   0  0  0  0  0  0  0  0  0  0  0  0
   13.2309   -0.7824   22.4360 C   0  0  0  0  0  0  0  0  0  0  0  0
   14.0932   -1.6616   21.8987 F   0  0  0  0  0  0  0  0  0  0  0  0
   11.8920   -1.1170   22.4835 C   0  0  0  0  0  0  0  0  0  0  0  0
   10.9737   -0.1742   22.9576 C   0  0  0  0  0  0  0  0  0  0  0  0
    8.1918   -2.4321   24.4284 H   0  0  0  0  0  0  0  0  0  0  0  0
    8.6563   -3.7635   23.3548 H   0  0  0  0  0  0  0  0  0  0  0  0
    9.9049   -2.8033   24.1790 H   0  0  0  0  0  0  0  0  0  0  0  0
    9.6570   -2.1530   21.7471 H   0  0  0  0  0  0  0  0  0  0  0  0
    6.7980   -1.4921   22.5093 H   0  0  0  0  0  0  0  0  0  0  0  0
    7.4076   -2.3625   21.0816 H   0  0  0  0  0  0  0  0  0  0  0  0
    8.0673   -0.8098   18.5213 H   0  0  0  0  0  0  0  0  0  0  0  0
    4.6954    1.1531   17.1808 H   0  0  0  0  0  0  0  0  0  0  0  0
    3.3457    2.5501   18.6724 H   0  0  0  0  0  0  0  0  0  0  0  0
    2.7896    3.3270   20.9587 H   0  0  0  0  0  0  0  0  0  0  0  0
    4.1327    2.5520   22.8989 H   0  0  0  0  0  0  0  0  0  0  0  0
    6.0850    1.1028   22.5587 H   0  0  0  0  0  0  0  0  0  0  0  0
    9.3059   -0.4687   25.0324 H   0  0  0  0  0  0  0  0  0  0  0  0
    7.8307    0.1023   24.2591 H   0  0  0  0  0  0  0  0  0  0  0  0
    7.4049    2.2287   24.8646 H   0  0  0  0  0  0  0  0  0  0  0  0
    8.6933    3.4522   24.9173 H   0  0  0  0  0  0  0  0  0  0  0  0
    9.2922    4.1624   27.6021 H   0  0  0  0  0  0  0  0  0  0  0  0
    9.0071    2.7282   29.9032 H   0  0  0  0  0  0  0  0  0  0  0  0
    8.2218    0.3959   29.1321 H   0  0  0  0  0  0  0  0  0  0  0  0
   13.1634    2.2930   23.8137 H   0  0  0  0  0  0  0  0  0  0  0  0
   14.7941    0.6375   22.8170 H   0  0  0  0  0  0  0  0  0  0  0  0
   11.5958   -2.0990   22.1258 H   0  0  0  0  0  0  0  0  0  0  0  0
  1  2  1  0
  2  3  1  0
  3  4  1  0
  4  5  1  0
  5  6  2  0
  6  7  1  0
  7  8  2  0
  8  9  1  0
  9 10  2  0
 10 11  1  0
 11 12  2  0
 12 13  1  0
 13 14  2  0
  4 15  1  0
 15 16  2  0
 15 17  1  0
 17 18  1  1
 18 19  1  0
 19 20  1  0
 20 21  1  0
 21 22  1  0
 22 23  2  0
 23 24  1  0
 24 25  1  0
 19 26  1  0
 26 27  2  0
 26 28  1  0
 28 29  2  0
 29 30  1  0
 30 31  2  0
 31 32  1  0
 31 33  1  0
 33 34  2  0
 17  2  1  0
 25 21  2  0
 34 28  1  0
 14  5  1  0
 34 17  1  0
 14  9  1  0
  1 35  1  0
  1 36  1  0
  1 37  1  0
  2 38  1  6
  3 39  1  0
  3 40  1  0
  6 41  1  0
  8 42  1  0
 10 43  1  0
 11 44  1  0
 12 45  1  0
 13 46  1  0
 18 47  1  0
 18 48  1  0
 20 49  1  0
 20 50  1  0
 22 51  1  0
 23 52  1  0
 24 53  1  0
 29 54  1  0
 30 55  1  0
 33 56  1  0
M  END
$$$$
