
     RDKit          3D

 66 71  0  0  0  0  0  0  0  0999 V2000
    7.2066    5.2287   27.1352 C   0  0  0  0  0  0  0  0  0  0  0  0
    7.3791    4.9361   25.7270 N   0  0  0  0  0  0  0  0  0  0  0  0
    6.6507    3.9448   25.1574 C   0  0  0  0  0  0  0  0  0  0  0  0
    5.9177    3.2028   25.7973 O   0  0  0  0  0  0  0  0  0  0  0  0
    6.8102    3.8243   23.6375 C   0  0  0  0  0  0  0  0  0  0  0  0
    7.9347    2.9903   23.2548 N   0  0  0  0  0  0  0  0  0  0  0  0
    7.8400    1.5633   23.4918 C   0  0  0  0  0  0  0  0  0  0  0  0
    8.5269    0.7641   22.3536 C   0  0  2  0  0  0  0  0  0  0  0  0
    7.7122    1.0254   21.0674 C   0  0  0  0  0  0  0  0  0  0  0  0
    7.6778    2.0358   20.4037 O   0  0  0  0  0  0  0  0  0  0  0  0
    6.9540   -0.0955   20.7901 N   0  0  0  0  0  0  0  0  0  0  0  0
    5.9150   -0.0621   19.8278 C   0  0  0  0  0  0  0  0  0  0  0  0
    6.0539   -0.7531   18.6529 C   0  0  0  0  0  0  0  0  0  0  0  0
    5.2033   -0.6554   17.6036 N   0  0  0  0  0  0  0  0  0  0  0  0
    4.1541    0.1207   17.7486 C   0  0  0  0  0  0  0  0  0  0  0  0
    3.8315    0.8086   18.9524 C   0  0  0  0  0  0  0  0  0  0  0  0
    2.6534    1.5897   19.0859 C   0  0  0  0  0  0  0  0  0  0  0  0
    2.3213    2.1519   20.2865 C   0  0  0  0  0  0  0  0  0  0  0  0
    3.1647    1.9804   21.4063 C   0  0  0  0  0  0  0  0  0  0  0  0
    4.3343    1.2710   21.2920 C   0  0  0  0  0  0  0  0  0  0  0  0
    4.7119    0.6859   20.0490 C   0  0  0  0  0  0  0  0  0  0  0  0
    7.1429   -1.1948   21.7081 C   0  0  0  0  0  0  0  0  0  0  0  0
    8.3725   -0.7718   22.5307 C   0  0  2  0  0  0  0  0  0  0  0  0
    8.3447   -1.2557   23.9911 C   0  0  0  0  0  0  0  0  0  0  0  0
    8.4366   -2.7558   24.1368 C   0  0  0  0  0  0  0  0  0  0  0  0
    7.3041   -3.5791   24.1135 C   0  0  0  0  0  0  0  0  0  0  0  0
    7.4151   -4.9537   24.3041 C   0  0  0  0  0  0  0  0  0  0  0  0
    8.6590   -5.5349   24.5418 C   0  0  0  0  0  0  0  0  0  0  0  0
    9.7936   -4.7265   24.5388 C   0  0  0  0  0  0  0  0  0  0  0  0
    9.6817   -3.3641   24.3147 C   0  0  0  0  0  0  0  0  0  0  0  0
    9.9615    1.2707   22.2838 C   0  0  0  0  0  0  0  0  0  0  0  0
   11.0513    0.4239   22.0272 C   0  0  0  0  0  0  0  0  0  0  0  0
   12.3264    0.9484   21.9361 C   0  0  0  0  0  0  0  0  0  0  0  0
   13.6574   -0.1223   21.6195 Cl  0  0  0  0  0  0  0  0  0  0  0  0
   12.5729    2.3119   22.0655 C   0  0  0  0  0  0  0  0  0  0  0  0
   11.5105    3.1480   22.3414 C   0  0  0  0  0  0  0  0  0  0  0  0
   10.2216    2.6404   22.5095 C   0  0  0  0  0  0  0  0  0  0  0  0
    9.1464    3.5777   23.0212 C   0  0  0  0  0  0  0  0  0  0  0  0
    9.3332    4.7700   23.2433 O   0  0  0  0  0  0  0  0  0  0  0  0
    6.2558    5.7434   27.3189 H   0  0  0  0  0  0  0  0  0  0  0  0
    7.1931    4.2977   27.7100 H   0  0  0  0  0  0  0  0  0  0  0  0
    8.0262    5.8676   27.4720 H   0  0  0  0  0  0  0  0  0  0  0  0
    8.1472    5.3346   25.2032 H   0  0  0  0  0  0  0  0  0  0  0  0
    6.9641    4.8116   23.1881 H   0  0  0  0  0  0  0  0  0  0  0  0
    5.8864    3.3736   23.2564 H   0  0  0  0  0  0  0  0  0  0  0  0
    6.7815    1.3004   23.5871 H   0  0  0  0  0  0  0  0  0  0  0  0
    8.3219    1.3299   24.4485 H   0  0  0  0  0  0  0  0  0  0  0  0
    6.9109   -1.4124   18.5120 H   0  0  0  0  0  0  0  0  0  0  0  0
    3.4770    0.2024   16.8985 H   0  0  0  0  0  0  0  0  0  0  0  0
    2.0312    1.7436   18.2120 H   0  0  0  0  0  0  0  0  0  0  0  0
    1.4090    2.7336   20.3861 H   0  0  0  0  0  0  0  0  0  0  0  0
    2.8908    2.4255   22.3578 H   0  0  0  0  0  0  0  0  0  0  0  0
    4.9783    1.1457   22.1594 H   0  0  0  0  0  0  0  0  0  0  0  0
    7.3133   -2.1271   21.1547 H   0  0  0  0  0  0  0  0  0  0  0  0
    6.2594   -1.3580   22.3442 H   0  0  0  0  0  0  0  0  0  0  0  0
    9.2282   -1.2348   22.0390 H   0  0  0  0  0  0  0  0  0  0  0  0
    9.1894   -0.7875   24.5140 H   0  0  0  0  0  0  0  0  0  0  0  0
    7.4357   -0.8751   24.4799 H   0  0  0  0  0  0  0  0  0  0  0  0
    6.3131   -3.1435   23.9831 H   0  0  0  0  0  0  0  0  0  0  0  0
    6.5192   -5.5715   24.3083 H   0  0  0  0  0  0  0  0  0  0  0  0
    8.7420   -6.5984   24.7501 H   0  0  0  0  0  0  0  0  0  0  0  0
   10.7926   -5.1245   24.7094 H   0  0  0  0  0  0  0  0  0  0  0  0
   10.5991   -2.7778   24.3085 H   0  0  0  0  0  0  0  0  0  0  0  0
   10.9480   -0.6520   21.9352 H   0  0  0  0  0  0  0  0  0  0  0  0
   13.5839    2.6931   21.9669 H   0  0  0  0  0  0  0  0  0  0  0  0
   11.6704    4.2153   22.4462 H   0  0  0  0  0  0  0  0  0  0  0  0
  1  2  1  0
  2  3  1  0
  3  4  2  0
  3  5  1  0
  5  6  1  0
  6  7  1  0
  8  7  1  1
  8  9  1  0
  9 10  2  0
  9 11  1  0
 11 12  1  0
 12 13  2  0
 13 14  1  0
 14 15  2  0
 15 16  1  0
 16 17  2  0
 17 18  1  0
 18 19  2  0
 19 20  1  0
 20 21  2  0
 11 22  1  0
 22 23  1  0
 23 24  1  0
 24 25  1  0
 25 26  2  0
 26 27  1  0
 27 28  2  0
 28 29  1  0
 29 30  2  0
  8 31  1  0
 31 32  2  0
 32 33  1  0
 33 34  1  0
 33 35  2  0
 35 36  1  0
 36 37  2  0
 37 38  1  0
 38 39  2  0
 38  6  1  0
 23  8  1  0
 30 25  1  0
 37 31  1  0
 21 12  1  0
 21 16  1  0
  1 40  1  0
  1 41  1  0
  1 42  1  0
  2 43  1  0
  5 44  1  0
  5 45  1  0
  7 46  1  0
  7 47  1  0
 13 48  1  0
 15 49  1  0
 17 50  1  0
 18 51  1  0
 19 52  1  0
 20 53  1  0
 22 54  1  0
 22 55  1  0
 23 56  1  6
 24 57  1  0
 24 58  1  0
 26 59  1  0
 27 60  1  0
 28 61  1  0
 29 62  1  0
 30 63  1  0
 32 64  1  0
 35 65  1  0
 36 66  1  0
M  END
$$$$
