
     RDKit          3D

 45 49  0  0  0  0  0  0  0  0999 V2000
    6.7671   -3.7462   23.9379 C   0  0  0  0  0  0  0  0  0  0  0  0
    6.8912   -2.6435   23.0121 N   0  0  0  0  0  0  0  0  0  0  0  0
    5.9870   -2.4289   22.0064 C   0  0  0  0  0  0  0  0  0  0  0  0
    4.9891   -3.0599   21.7432 O   0  0  0  0  0  0  0  0  0  0  0  0
    6.4412   -1.2940   21.3124 N   0  0  0  0  0  0  0  0  0  0  0  0
    5.7540   -0.7439   20.1985 C   0  0  0  0  0  0  0  0  0  0  0  0
    6.1905   -1.0231   18.9316 C   0  0  0  0  0  0  0  0  0  0  0  0
    5.5872   -0.5889   17.7967 N   0  0  0  0  0  0  0  0  0  0  0  0
    4.5184    0.1600   17.9389 C   0  0  0  0  0  0  0  0  0  0  0  0
    3.9559    0.5204   19.1977 C   0  0  0  0  0  0  0  0  0  0  0  0
    2.7932    1.3266   19.2991 C   0  0  0  0  0  0  0  0  0  0  0  0
    2.2879    1.6662   20.5227 C   0  0  0  0  0  0  0  0  0  0  0  0
    2.9140    1.2092   21.7033 C   0  0  0  0  0  0  0  0  0  0  0  0
    4.0387    0.4245   21.6364 C   0  0  0  0  0  0  0  0  0  0  0  0
    4.5860    0.0600   20.3740 C   0  0  0  0  0  0  0  0  0  0  0  0
    7.6608   -0.8392   21.8013 C   0  0  0  0  0  0  0  0  0  0  0  0
    8.2668    0.1341   21.4334 O   0  0  0  0  0  0  0  0  0  0  0  0
    8.0704   -1.8292   22.8710 C   0  0  0  0  0  0  0  0  0  0  0  0
    9.4206   -2.5322   22.5683 C   0  0  0  0  0  0  0  0  0  0  0  0
   10.0031   -1.8896   23.7508 N   0  0  0  0  0  0  0  0  0  0  0  0
   11.0272   -2.7877   24.7079 S   0  0  0  0  0  0  0  0  0  0  0  0
   11.6629   -1.8695   25.6333 O   0  0  0  0  0  0  0  0  0  0  0  0
   11.8322   -3.5613   23.7789 O   0  0  0  0  0  0  0  0  0  0  0  0
    9.9837   -3.8724   25.6228 C   0  0  0  0  0  0  0  0  0  0  0  0
   10.4241   -5.1427   25.8154 C   0  0  0  0  0  0  0  0  0  0  0  0
   10.4291   -5.2072   26.0185 C   0  0  0  0  0  0  0  0  0  0  0  0
    8.7309   -1.2111   24.1241 C   0  0  0  0  0  0  0  0  0  0  0  0
    5.7412   -3.7667   24.3099 H   0  0  0  0  0  0  0  0  0  0  0  0
    6.9932   -4.7080   23.4600 H   0  0  0  0  0  0  0  0  0  0  0  0
    7.4434   -3.5944   24.7807 H   0  0  0  0  0  0  0  0  0  0  0  0
    7.0736   -1.6424   18.7952 H   0  0  0  0  0  0  0  0  0  0  0  0
    4.0434    0.5245   17.0281 H   0  0  0  0  0  0  0  0  0  0  0  0
    2.3272    1.6645   18.3821 H   0  0  0  0  0  0  0  0  0  0  0  0
    1.4066    2.2978   20.6000 H   0  0  0  0  0  0  0  0  0  0  0  0
    2.5047    1.4879   22.6701 H   0  0  0  0  0  0  0  0  0  0  0  0
    4.5218    0.0886   22.5492 H   0  0  0  0  0  0  0  0  0  0  0  0
    9.9053   -2.2016   21.6470 H   0  0  0  0  0  0  0  0  0  0  0  0
    9.3850   -3.6266   22.6028 H   0  0  0  0  0  0  0  0  0  0  0  0
    9.2671   -3.2738   26.2008 H   0  0  0  0  0  0  0  0  0  0  0  0
    9.9221   -6.2581   25.4069 H   0  0  0  0  0  0  0  0  0  0  0  0
   10.4113   -5.6769   24.5939 H   0  0  0  0  0  0  0  0  0  0  0  0
   10.2326   -5.3823   27.7164 H   0  0  0  0  0  0  0  0  0  0  0  0
   11.6229   -5.6620   25.7790 H   0  0  0  0  0  0  0  0  0  0  0  0
    8.8481   -0.1282   24.0706 H   0  0  0  0  0  0  0  0  0  0  0  0
    8.2983   -1.4968   25.0895 H   0  0  0  0  0  0  0  0  0  0  0  0
  1  2  1  0
  2  3  1  0
  3  4  2  0
  3  5  1  0
  5  6  1  0
  6  7  2  0
  7  8  1  0
  8  9  2  0
  9 10  1  0
 10 11  2  0
 11 12  1  0
 12 13  2  0
 13 14  1  0
 14 15  2  0
  5 16  1  0
 16 17  2  0
 16 18  1  0
 18 19  1  0
 19 20  1  0
 20 21  1  0
 21 22  2  0
 21 23  2  0
 21 24  1  0
 24 25  1  0
 25 26  1  0
 20 27  1  0
 18  2  1  0
 26 24  1  0
 15  6  1  0
 27 18  1  0
 15 10  1  0
  1 28  1  0
  1 29  1  0
  1 30  1  0
  7 31  1  0
  9 32  1  0
 11 33  1  0
 12 34  1  0
 13 35  1  0
 14 36  1  0
 19 37  1  0
 19 38  1  0
 24 39  1  0
 25 40  1  0
 25 41  1  0
 26 42  1  0
 26 43  1  0
 27 44  1  0
 27 45  1  0
M  END
