
     RDKit          3D

 45 49  0  0  0  0  0  0  0  0999 V2000
   -7.3547   -2.9377  -23.6760 C   0  0  0  0  0  0  0  0  0  0  0  0
   -7.4543   -1.8380  -22.7437 N   0  0  0  0  0  0  0  0  0  0  0  0
   -6.5200   -1.6224  -21.7661 C   0  0  0  0  0  0  0  0  0  0  0  0
   -5.5119   -2.2499  -21.5359 O   0  0  0  0  0  0  0  0  0  0  0  0
   -6.9569   -0.4912  -21.0552 N   0  0  0  0  0  0  0  0  0  0  0  0
   -6.2375    0.0588  -19.9617 C   0  0  0  0  0  0  0  0  0  0  0  0
   -6.6331   -0.2256  -18.6826 C   0  0  0  0  0  0  0  0  0  0  0  0
   -5.9965    0.2081  -17.5659 N   0  0  0  0  0  0  0  0  0  0  0  0
   -4.9357    0.9618  -17.7393 C   0  0  0  0  0  0  0  0  0  0  0  0
   -4.4142    1.3278  -19.0140 C   0  0  0  0  0  0  0  0  0  0  0  0
   -3.2585    2.1391  -19.1494 C   0  0  0  0  0  0  0  0  0  0  0  0
   -2.7930    2.4840  -20.3872 C   0  0  0  0  0  0  0  0  0  0  0  0
   -3.4538    2.0275  -21.5490 C   0  0  0  0  0  0  0  0  0  0  0  0
   -4.5727    1.2380  -21.4492 C   0  0  0  0  0  0  0  0  0  0  0  0
   -5.0788    0.8680  -20.1713 C   0  0  0  0  0  0  0  0  0  0  0  0
   -8.1930   -0.0401  -21.5045 C   0  0  0  0  0  0  0  0  0  0  0  0
   -8.7912    0.9297  -21.1152 O   0  0  0  0  0  0  0  0  0  0  0  0
   -8.6318   -1.0290  -22.5636 C   0  0  0  0  0  0  0  0  0  0  0  0
   -9.9691   -1.7383  -22.2209 C   0  0  0  0  0  0  0  0  0  0  0  0
  -10.5908   -1.0950  -23.3829 N   0  0  0  0  0  0  0  0  0  0  0  0
  -11.6406   -1.9948  -24.3100 S   0  0  0  0  0  0  0  0  0  0  0  0
  -12.3086   -1.0767  -25.2126 O   0  0  0  0  0  0  0  0  0  0  0  0
  -12.4131   -2.7741  -23.3585 O   0  0  0  0  0  0  0  0  0  0  0  0
  -10.6218   -3.0727  -25.2601 C   0  0  0  0  0  0  0  0  0  0  0  0
  -11.0629   -4.3443  -25.4423 C   0  0  0  0  0  0  0  0  0  0  0  0
  -11.0740   -4.4083  -25.6454 C   0  0  0  0  0  0  0  0  0  0  0  0
   -9.3336   -0.4103  -23.7938 C   0  0  0  0  0  0  0  0  0  0  0  0
   -6.3409   -2.9530  -24.0799 H   0  0  0  0  0  0  0  0  0  0  0  0
   -7.5619   -3.9017  -23.1939 H   0  0  0  0  0  0  0  0  0  0  0  0
   -8.0576   -2.7865  -24.4969 H   0  0  0  0  0  0  0  0  0  0  0  0
   -7.5090   -0.8489  -18.5204 H   0  0  0  0  0  0  0  0  0  0  0  0
   -4.4339    1.3258  -16.8427 H   0  0  0  0  0  0  0  0  0  0  0  0
   -2.7654    2.4765  -18.2465 H   0  0  0  0  0  0  0  0  0  0  0  0
   -1.9171    3.1194  -20.4902 H   0  0  0  0  0  0  0  0  0  0  0  0
   -3.0760    2.3105  -22.5273 H   0  0  0  0  0  0  0  0  0  0  0  0
   -5.0827    0.9026  -22.3474 H   0  0  0  0  0  0  0  0  0  0  0  0
  -10.4261   -1.4122  -21.2840 H   0  0  0  0  0  0  0  0  0  0  0  0
   -9.9302   -2.8325  -22.2595 H   0  0  0  0  0  0  0  0  0  0  0  0
   -9.9260   -2.4697  -25.8585 H   0  0  0  0  0  0  0  0  0  0  0  0
  -10.5439   -5.4587  -25.0528 H   0  0  0  0  0  0  0  0  0  0  0  0
  -11.0098   -4.8817  -24.2233 H   0  0  0  0  0  0  0  0  0  0  0  0
  -10.9299   -4.5781  -27.3490 H   0  0  0  0  0  0  0  0  0  0  0  0
  -12.2579   -4.8686  -25.3700 H   0  0  0  0  0  0  0  0  0  0  0  0
   -9.4534    0.6720  -23.7337 H   0  0  0  0  0  0  0  0  0  0  0  0
   -8.9302   -0.6916  -24.7730 H   0  0  0  0  0  0  0  0  0  0  0  0
  1  2  1  0
  2  3  1  0
  3  4  2  0
  3  5  1  0
  5  6  1  0
  6  7  2  0
  7  8  1  0
  8  9  2  0
  9 10  1  0
 10 11  2  0
 11 12  1  0
 12 13  2  0
 13 14  1  0
 14 15  2  0
  5 16  1  0
 16 17  2  0
 16 18  1  0
 18 19  1  0
 19 20  1  0
 20 21  1  0
 21 22  2  0
 21 23  2  0
 21 24  1  0
 24 25  1  0
 25 26  1  0
 20 27  1  0
 18  2  1  0
 26 24  1  0
 15  6  1  0
 27 18  1  0
 15 10  1  0
  1 28  1  0
  1 29  1  0
  1 30  1  0
  7 31  1  0
  9 32  1  0
 11 33  1  0
 12 34  1  0
 13 35  1  0
 14 36  1  0
 19 37  1  0
 19 38  1  0
 24 39  1  0
 25 40  1  0
 25 41  1  0
 26 42  1  0
 26 43  1  0
 27 44  1  0
 27 45  1  0
M  END
$$$$
