
     RDKit          3D

 50 53  0  0  0  0  0  0  0  0999 V2000
   10.9386   -2.5368   25.1381 O   0  0  0  0  0  0  0  0  0  0  0  0
   10.1020   -3.1075   24.4459 C   0  0  0  0  0  0  0  0  0  0  0  0
    9.2191   -2.2672   23.5118 C   0  0  0  0  0  0  0  0  0  0  0  0
    9.6078   -0.7889   23.5215 C   0  0  0  0  0  0  0  0  0  0  0  0
    8.6878    0.2099   23.9018 C   0  0  0  0  0  0  0  0  0  0  0  0
    9.0198    1.5015   24.0466 N   0  0  0  0  0  0  0  0  0  0  0  0
   10.3070    1.8429   23.8530 C   0  0  0  0  0  0  0  0  0  0  0  0
   11.2935    0.9286   23.4872 C   0  0  0  0  0  0  0  0  0  0  0  0
   12.6242    1.3343   23.3445 C   0  0  0  0  0  0  0  0  0  0  0  0
   13.6083    0.4057   22.9928 C   0  0  0  0  0  0  0  0  0  0  0  0
   13.2598   -0.9263   22.7426 C   0  0  0  0  0  0  0  0  0  0  0  0
   11.9215   -1.3307   22.8902 C   0  0  0  0  0  0  0  0  0  0  0  0
   10.9370   -0.4105   23.2809 C   0  0  0  0  0  0  0  0  0  0  0  0
    9.9835   -4.4955   24.5742 N   0  0  0  0  0  0  0  0  0  0  0  0
   10.6148   -5.0726   25.7638 C   0  0  0  0  0  0  0  0  0  0  0  0
    9.6771   -4.7139   26.9240 C   0  0  0  0  0  0  0  0  0  0  0  0
    8.2939   -5.3414   26.6816 C   0  0  0  0  0  0  0  0  0  0  0  0
    7.7335   -4.9570   25.3008 C   0  0  0  0  0  0  0  0  0  0  0  0
    8.7629   -5.2081   24.1947 C   0  0  1  0  0  0  0  0  0  0  0  0
    8.1359   -4.8415   22.8425 C   0  0  0  0  0  0  0  0  0  0  0  0
    6.9483   -5.7588   22.5983 C   0  0  0  0  0  0  0  0  0  0  0  0
    7.0589   -7.1475   22.7918 C   0  0  0  0  0  0  0  0  0  0  0  0
    5.9427   -7.9824   22.6439 C   0  0  0  0  0  0  0  0  0  0  0  0
    4.6994   -7.4343   22.3186 C   0  0  0  0  0  0  0  0  0  0  0  0
    4.5769   -6.0559   22.1287 C   0  0  0  0  0  0  0  0  0  0  0  0
    5.6959   -5.2238   22.2609 C   0  0  0  0  0  0  0  0  0  0  0  0
    8.1777   -2.3780   23.8219 H   0  0  0  0  0  0  0  0  0  0  0  0
    9.3188   -2.6740   22.5052 H   0  0  0  0  0  0  0  0  0  0  0  0
    7.6598   -0.0629   24.1146 H   0  0  0  0  0  0  0  0  0  0  0  0
   10.6251    2.8719   23.9782 H   0  0  0  0  0  0  0  0  0  0  0  0
   12.8729    2.3752   23.5262 H   0  0  0  0  0  0  0  0  0  0  0  0
   14.6368    0.7480   22.9104 H   0  0  0  0  0  0  0  0  0  0  0  0
   14.0231   -1.6363   22.4353 H   0  0  0  0  0  0  0  0  0  0  0  0
   11.6418   -2.3631   22.7135 H   0  0  0  0  0  0  0  0  0  0  0  0
   11.6156   -4.6531   25.9303 H   0  0  0  0  0  0  0  0  0  0  0  0
   10.7243   -6.1608   25.6697 H   0  0  0  0  0  0  0  0  0  0  0  0
    9.5787   -3.6229   26.9949 H   0  0  0  0  0  0  0  0  0  0  0  0
   10.0904   -5.0707   27.8702 H   0  0  0  0  0  0  0  0  0  0  0  0
    7.5917   -5.0260   27.4590 H   0  0  0  0  0  0  0  0  0  0  0  0
    8.3935   -6.4304   26.7368 H   0  0  0  0  0  0  0  0  0  0  0  0
    7.4439   -3.9017   25.2905 H   0  0  0  0  0  0  0  0  0  0  0  0
    6.8370   -5.5487   25.0904 H   0  0  0  0  0  0  0  0  0  0  0  0
    9.0022   -6.2785   24.1663 H   0  0  0  0  0  0  0  0  0  0  0  0
    7.7855   -3.8077   22.8705 H   0  0  0  0  0  0  0  0  0  0  0  0
    8.8744   -4.9335   22.0393 H   0  0  0  0  0  0  0  0  0  0  0  0
    8.0140   -7.5753   23.0819 H   0  0  0  0  0  0  0  0  0  0  0  0
    6.0303   -9.0550   22.7914 H   0  0  0  0  0  0  0  0  0  0  0  0
    3.8300   -8.0761   22.2196 H   0  0  0  0  0  0  0  0  0  0  0  0
    3.6059   -5.6347   21.8970 H   0  0  0  0  0  0  0  0  0  0  0  0
    5.5840   -4.1535   22.1242 H   0  0  0  0  0  0  0  0  0  0  0  0
  1  2  2  0
  2  3  1  0
  3  4  1  0
  4  5  2  0
  5  6  1  0
  6  7  2  0
  7  8  1  0
  8  9  2  0
  9 10  1  0
 10 11  2  0
 11 12  1  0
 12 13  2  0
  2 14  1  0
 14 15  1  0
 15 16  1  0
 16 17  1  0
 17 18  1  0
 18 19  1  0
 19 20  1  0
 20 21  1  0
 21 22  2  0
 22 23  1  0
 23 24  2  0
 24 25  1  0
 25 26  2  0
 13  4  1  0
 19 14  1  0
 26 21  1  0
 13  8  1  0
  3 27  1  0
  3 28  1  0
  5 29  1  0
  7 30  1  0
  9 31  1  0
 10 32  1  0
 11 33  1  0
 12 34  1  0
 15 35  1  0
 15 36  1  0
 16 37  1  0
 16 38  1  0
 17 39  1  0
 17 40  1  0
 18 41  1  0
 18 42  1  0
 19 43  1  6
 20 44  1  0
 20 45  1  0
 22 46  1  0
 23 47  1  0
 24 48  1  0
 25 49  1  0
 26 50  1  0
M  END
$$$$
