
     RDKit          3D

 66 71  0  0  0  0  0  0  0  0999 V2000
   -7.0091    3.6327  -22.4894 C   0  0  0  0  0  0  0  0  0  0  0  0
   -7.7957    2.6945  -23.2687 N   0  0  0  0  0  0  0  0  0  0  0  0
   -7.5046    2.5242  -24.5778 C   0  0  0  0  0  0  0  0  0  0  0  0
   -6.7357    3.2404  -25.2042 O   0  0  0  0  0  0  0  0  0  0  0  0
   -8.1583    1.3526  -25.3202 C   0  0  0  0  0  0  0  0  0  0  0  0
   -8.9884    0.4586  -24.5548 N   0  0  0  0  0  0  0  0  0  0  0  0
   -8.5103   -0.8890  -24.2805 C   0  0  0  0  0  0  0  0  0  0  0  0
   -9.0687   -1.4265  -22.9394 C   0  0  2  0  0  0  0  0  0  0  0  0
   -8.4704   -0.5760  -21.7907 C   0  0  0  0  0  0  0  0  0  0  0  0
   -8.7798    0.5665  -21.5101 O   0  0  0  0  0  0  0  0  0  0  0  0
   -7.4967   -1.3113  -21.1517 N   0  0  0  0  0  0  0  0  0  0  0  0
   -6.6565   -0.7940  -20.1252 C   0  0  0  0  0  0  0  0  0  0  0  0
   -6.8878   -1.1452  -18.8188 C   0  0  0  0  0  0  0  0  0  0  0  0
   -6.1266   -0.7520  -17.7670 N   0  0  0  0  0  0  0  0  0  0  0  0
   -5.1033    0.0303  -18.0104 C   0  0  0  0  0  0  0  0  0  0  0  0
   -4.7549    0.4854  -19.3154 C   0  0  0  0  0  0  0  0  0  0  0  0
   -3.6646    1.3676  -19.5324 C   0  0  0  0  0  0  0  0  0  0  0  0
   -3.3242    1.7617  -20.7960 C   0  0  0  0  0  0  0  0  0  0  0  0
   -4.0595    1.2874  -21.9031 C   0  0  0  0  0  0  0  0  0  0  0  0
   -5.1409    0.4607  -21.7213 C   0  0  0  0  0  0  0  0  0  0  0  0
   -5.5306    0.0460  -20.4159 C   0  0  0  0  0  0  0  0  0  0  0  0
   -7.2203   -2.5768  -21.8067 C   0  0  0  0  0  0  0  0  0  0  0  0
   -8.5394   -2.8315  -22.5490 C   0  0  2  0  0  0  0  0  0  0  0  0
   -8.4715   -3.8562  -23.6846 C   0  0  0  0  0  0  0  0  0  0  0  0
   -8.2190   -5.2109  -23.2411 N   0  0  0  0  0  0  0  0  0  0  0  0
   -6.9579   -5.7036  -23.1163 C   0  0  0  0  0  0  0  0  0  0  0  0
   -6.7199   -6.9378  -22.4809 C   0  0  0  0  0  0  0  0  0  0  0  0
   -5.4094   -7.3483  -22.4387 C   0  0  0  0  0  0  0  0  0  0  0  0
   -4.3929   -6.6784  -22.9990 N   0  0  0  0  0  0  0  0  0  0  0  0
   -4.7366   -5.5400  -23.5833 C   0  0  0  0  0  0  0  0  0  0  0  0
   -5.9495   -4.9930  -23.6408 N   0  0  0  0  0  0  0  0  0  0  0  0
  -10.5779   -1.3025  -23.0407 C   0  0  0  0  0  0  0  0  0  0  0  0
  -11.4688   -2.2521  -22.5333 C   0  0  0  0  0  0  0  0  0  0  0  0
  -12.8245   -1.9772  -22.4822 C   0  0  0  0  0  0  0  0  0  0  0  0
  -13.8622   -3.1034  -21.6486 Cl  0  0  0  0  0  0  0  0  0  0  0  0
  -13.3629   -0.8037  -23.0093 C   0  0  0  0  0  0  0  0  0  0  0  0
  -12.4986    0.1062  -23.5847 C   0  0  0  0  0  0  0  0  0  0  0  0
  -11.1293   -0.1480  -23.6155 C   0  0  0  0  0  0  0  0  0  0  0  0
  -10.2563    0.8740  -24.2604 C   0  0  0  0  0  0  0  0  0  0  0  0
  -10.6476    2.0170  -24.4850 O   0  0  0  0  0  0  0  0  0  0  0  0
   -5.9448    3.5509  -22.7470 H   0  0  0  0  0  0  0  0  0  0  0  0
   -7.3105    4.6754  -22.6488 H   0  0  0  0  0  0  0  0  0  0  0  0
   -7.1410    3.3834  -21.4332 H   0  0  0  0  0  0  0  0  0  0  0  0
   -8.3553    2.0129  -22.7584 H   0  0  0  0  0  0  0  0  0  0  0  0
   -7.3396    0.7793  -25.7662 H   0  0  0  0  0  0  0  0  0  0  0  0
   -8.7363    1.7803  -26.1431 H   0  0  0  0  0  0  0  0  0  0  0  0
   -7.4152   -0.8595  -24.2373 H   0  0  0  0  0  0  0  0  0  0  0  0
   -8.8100   -1.5680  -25.0895 H   0  0  0  0  0  0  0  0  0  0  0  0
   -7.7545   -1.7562  -18.5685 H   0  0  0  0  0  0  0  0  0  0  0  0
   -4.5160    0.3708  -17.1559 H   0  0  0  0  0  0  0  0  0  0  0  0
   -3.1211    1.7321  -18.6677 H   0  0  0  0  0  0  0  0  0  0  0  0
   -2.4997    2.4509  -20.9547 H   0  0  0  0  0  0  0  0  0  0  0  0
   -3.7844    1.6063  -22.9047 H   0  0  0  0  0  0  0  0  0  0  0  0
   -5.7076    0.1182  -22.5824 H   0  0  0  0  0  0  0  0  0  0  0  0
   -6.3648   -2.4907  -22.4949 H   0  0  0  0  0  0  0  0  0  0  0  0
   -6.9660   -3.3487  -21.0747 H   0  0  0  0  0  0  0  0  0  0  0  0
   -9.2255   -3.2057  -21.7840 H   0  0  0  0  0  0  0  0  0  0  0  0
   -7.6430   -3.6071  -24.3457 H   0  0  0  0  0  0  0  0  0  0  0  0
   -9.3952   -3.8291  -24.2766 H   0  0  0  0  0  0  0  0  0  0  0  0
   -8.9703   -5.7156  -22.7982 H   0  0  0  0  0  0  0  0  0  0  0  0
   -7.5478   -7.5240  -22.0919 H   0  0  0  0  0  0  0  0  0  0  0  0
   -5.1423   -8.2709  -21.9325 H   0  0  0  0  0  0  0  0  0  0  0  0
   -3.9359   -5.0001  -24.0876 H   0  0  0  0  0  0  0  0  0  0  0  0
  -11.1277   -3.1874  -22.1078 H   0  0  0  0  0  0  0  0  0  0  0  0
  -14.4265   -0.6035  -22.9227 H   0  0  0  0  0  0  0  0  0  0  0  0
  -12.8553    1.0443  -23.9977 H   0  0  0  0  0  0  0  0  0  0  0  0
  1  2  1  0
  2  3  1  0
  3  4  2  0
  3  5  1  0
  5  6  1  0
  6  7  1  0
  8  7  1  6
  8  9  1  0
  9 10  2  0
  9 11  1  0
 11 12  1  0
 12 13  2  0
 13 14  1  0
 14 15  2  0
 15 16  1  0
 16 17  2  0
 17 18  1  0
 18 19  2  0
 19 20  1  0
 20 21  2  0
 11 22  1  0
 22 23  1  0
 23 24  1  0
 24 25  1  0
 25 26  1  0
 26 27  2  0
 27 28  1  0
 28 29  2  0
 29 30  1  0
 30 31  2  0
  8 32  1  0
 32 33  2  0
 33 34  1  0
 34 35  1  0
 34 36  2  0
 36 37  1  0
 37 38  2  0
 38 39  1  0
 39 40  2  0
 39  6  1  0
 23  8  1  0
 31 26  1  0
 38 32  1  0
 21 12  1  0
 21 16  1  0
  1 41  1  0
  1 42  1  0
  1 43  1  0
  2 44  1  0
  5 45  1  0
  5 46  1  0
  7 47  1  0
  7 48  1  0
 13 49  1  0
 15 50  1  0
 17 51  1  0
 18 52  1  0
 19 53  1  0
 20 54  1  0
 22 55  1  0
 22 56  1  0
 23 57  1  1
 24 58  1  0
 24 59  1  0
 25 60  1  0
 27 61  1  0
 28 62  1  0
 30 63  1  0
 33 64  1  0
 36 65  1  0
 37 66  1  0
M  END
