
     RDKit          3D

 62 67  0  0  0  0  0  0  0  0999 V2000
    8.5235   -1.4119   23.9134 C   0  0  0  0  0  0  0  0  0  0  0  0
    8.4924   -0.8522   22.4921 C   0  0  1  0  0  0  0  0  0  0  0  0
    7.2109   -1.2596   21.7380 C   0  0  0  0  0  0  0  0  0  0  0  0
    6.9672   -0.1463   20.8510 N   0  0  0  0  0  0  0  0  0  0  0  0
    5.9365   -0.1051   19.8809 C   0  0  0  0  0  0  0  0  0  0  0  0
    6.0830   -0.7835   18.6986 C   0  0  0  0  0  0  0  0  0  0  0  0
    5.2465   -0.6689   17.6398 N   0  0  0  0  0  0  0  0  0  0  0  0
    4.1952    0.1041   17.7885 C   0  0  0  0  0  0  0  0  0  0  0  0
    3.8689    0.7851   18.9961 C   0  0  0  0  0  0  0  0  0  0  0  0
    2.6874    1.5631   19.1230 C   0  0  0  0  0  0  0  0  0  0  0  0
    2.3630    2.1581   20.3114 C   0  0  0  0  0  0  0  0  0  0  0  0
    3.2268    2.0298   21.4213 C   0  0  0  0  0  0  0  0  0  0  0  0
    4.3869    1.2990   21.3200 C   0  0  0  0  0  0  0  0  0  0  0  0
    4.7486    0.6638   20.0951 C   0  0  0  0  0  0  0  0  0  0  0  0
    7.7595    0.9550   21.0827 C   0  0  0  0  0  0  0  0  0  0  0  0
    7.7126    1.9611   20.4048 O   0  0  0  0  0  0  0  0  0  0  0  0
    8.5933    0.6984   22.3641 C   0  0  1  0  0  0  0  0  0  0  0  0
    7.9104    1.4351   23.5478 C   0  0  0  0  0  0  0  0  0  0  0  0
    7.9698    2.8763   23.3996 N   0  0  0  0  0  0  0  0  0  0  0  0
    6.8402    3.7278   23.7187 C   0  0  0  0  0  0  0  0  0  0  0  0
    6.2545    4.3152   22.4451 C   0  0  0  0  0  0  0  0  0  0  0  0
    5.0804    5.1607   22.7653 N   0  0  0  0  0  0  0  0  0  0  0  0
    5.3467    6.5525   23.3832 C   0  0  0  0  0  0  0  0  0  0  0  0
    4.6507    7.2677   22.1865 C   0  0  0  0  0  0  0  0  0  0  0  0
    4.3674    5.8455   21.6149 C   0  0  0  0  0  0  0  0  0  0  0  0
    9.0936    3.5224   22.9806 C   0  0  0  0  0  0  0  0  0  0  0  0
    9.2224    4.7367   23.0543 O   0  0  0  0  0  0  0  0  0  0  0  0
   10.1803    2.6614   22.4341 C   0  0  0  0  0  0  0  0  0  0  0  0
   11.3945    3.2786   22.1400 C   0  0  0  0  0  0  0  0  0  0  0  0
   12.5145    2.5187   21.8867 C   0  0  0  0  0  0  0  0  0  0  0  0
   12.3704    1.1286   21.8837 C   0  0  0  0  0  0  0  0  0  0  0  0
   13.7789    0.1408   21.6357 Cl  0  0  0  0  0  0  0  0  0  0  0  0
   11.1422    0.5082   22.0391 C   0  0  0  0  0  0  0  0  0  0  0  0
    9.9983    1.2760   22.2925 C   0  0  0  0  0  0  0  0  0  0  0  0
    9.4206   -1.0992   24.4586 H   0  0  0  0  0  0  0  0  0  0  0  0
    7.6495   -1.0752   24.4865 H   0  0  0  0  0  0  0  0  0  0  0  0
    8.4990   -2.5069   23.9008 H   0  0  0  0  0  0  0  0  0  0  0  0
    9.3255   -1.2770   21.9225 H   0  0  0  0  0  0  0  0  0  0  0  0
    6.3696   -1.4116   22.4298 H   0  0  0  0  0  0  0  0  0  0  0  0
    7.3342   -2.1885   21.1678 H   0  0  0  0  0  0  0  0  0  0  0  0
    6.9484   -1.4289   18.5523 H   0  0  0  0  0  0  0  0  0  0  0  0
    3.5186    0.1926   16.9381 H   0  0  0  0  0  0  0  0  0  0  0  0
    2.0545    1.6852   18.2512 H   0  0  0  0  0  0  0  0  0  0  0  0
    1.4429    2.7300   20.3996 H   0  0  0  0  0  0  0  0  0  0  0  0
    2.9740    2.5231   22.3570 H   0  0  0  0  0  0  0  0  0  0  0  0
    5.0361    1.2054   22.1851 H   0  0  0  0  0  0  0  0  0  0  0  0
    8.4260    1.1370   24.4688 H   0  0  0  0  0  0  0  0  0  0  0  0
    6.8619    1.1361   23.6183 H   0  0  0  0  0  0  0  0  0  0  0  0
    6.0883    3.1466   24.2634 H   0  0  0  0  0  0  0  0  0  0  0  0
    7.1904    4.5256   24.3842 H   0  0  0  0  0  0  0  0  0  0  0  0
    7.0009    4.9274   21.9332 H   0  0  0  0  0  0  0  0  0  0  0  0
    5.9319    3.5347   21.7566 H   0  0  0  0  0  0  0  0  0  0  0  0
    4.4311    4.5904   23.3301 H   0  0  0  0  0  0  0  0  0  0  0  0
    4.8541    6.6254   24.3489 H   0  0  0  0  0  0  0  0  0  0  0  0
    6.4166    6.7253   23.4868 H   0  0  0  0  0  0  0  0  0  0  0  0
    5.3286    7.8710   21.5736 H   0  0  0  0  0  0  0  0  0  0  0  0
    3.7668    7.8600   22.4377 H   0  0  0  0  0  0  0  0  0  0  0  0
    4.8431    5.6010   20.6661 H   0  0  0  0  0  0  0  0  0  0  0  0
    3.3252    5.5374   21.6006 H   0  0  0  0  0  0  0  0  0  0  0  0
   11.4544    4.3653   22.1654 H   0  0  0  0  0  0  0  0  0  0  0  0
   13.4768    3.0081   21.7439 H   0  0  0  0  0  0  0  0  0  0  0  0
   11.0955   -0.5712   21.9466 H   0  0  0  0  0  0  0  0  0  0  0  0
  1  2  1  0
  2  3  1  0
  3  4  1  0
  4  5  1  0
  5  6  2  0
  6  7  1  0
  7  8  2  0
  8  9  1  0
  9 10  2  0
 10 11  1  0
 11 12  2  0
 12 13  1  0
 13 14  2  0
  4 15  1  0
 15 16  2  0
 15 17  1  0
 17 18  1  1
 18 19  1  0
 19 20  1  0
 20 21  1  0
 21 22  1  0
 22 23  1  0
 23 24  1  0
 24 25  1  0
 19 26  1  0
 26 27  2  0
 26 28  1  0
 28 29  2  0
 29 30  1  0
 30 31  2  0
 31 32  1  0
 31 33  1  0
 33 34  2  0
 17  2  1  0
 25 22  1  0
 34 28  1  0
 14  5  1  0
 34 17  1  0
 14  9  1  0
  1 35  1  0
  1 36  1  0
  1 37  1  0
  2 38  1  6
  3 39  1  0
  3 40  1  0
  6 41  1  0
  8 42  1  0
 10 43  1  0
 11 44  1  0
 12 45  1  0
 13 46  1  0
 18 47  1  0
 18 48  1  0
 20 49  1  0
 20 50  1  0
 21 51  1  0
 21 52  1  0
 22 53  1  0
 23 54  1  0
 23 55  1  0
 24 56  1  0
 24 57  1  0
 25 58  1  0
 25 59  1  0
 29 60  1  0
 30 61  1  0
 33 62  1  0
M  CHG  1  22   1
M  END
$$$$
