
     RDKit          3D

 43 47  0  0  0  0  0  0  0  0999 V2000
    7.5202    1.9619   20.5120 O   0  0  0  0  0  0  0  0  0  0  0  0
    7.6253    0.9127   21.1117 C   0  0  0  0  0  0  0  0  0  0  0  0
    8.4914    0.5540   22.0877 N   0  0  0  0  0  0  0  0  0  0  0  0
    8.4200   -0.8409   22.4552 C   0  0  2  0  0  0  0  0  0  0  0  0
    8.6624   -1.0545   23.9561 C   0  0  0  0  0  0  0  0  0  0  0  0
   10.1618   -1.0962   23.6068 C   0  0  1  0  0  0  0  0  0  0  0  0
   11.2022   -1.7808   24.4350 C   0  0  0  0  0  0  0  0  0  0  0  0
   10.9584   -2.2585   25.7224 C   0  0  0  0  0  0  0  0  0  0  0  0
   11.9936   -2.7349   26.5141 C   0  0  0  0  0  0  0  0  0  0  0  0
   13.2965   -2.7450   26.0289 C   0  0  0  0  0  0  0  0  0  0  0  0
   13.5656   -2.2848   24.7467 C   0  0  0  0  0  0  0  0  0  0  0  0
   12.5228   -1.8050   23.9694 C   0  0  0  0  0  0  0  0  0  0  0  0
   12.9250   -1.1774   22.3854 Cl  0  0  0  0  0  0  0  0  0  0  0  0
    9.7490   -1.5757   22.2021 C   0  0  0  0  0  0  0  0  0  0  0  0
    7.1823   -1.2983   21.7083 C   0  0  0  0  0  0  0  0  0  0  0  0
    6.6052   -2.3551   21.7449 O   0  0  0  0  0  0  0  0  0  0  0  0
    6.8264   -0.2131   20.9097 N   0  0  0  0  0  0  0  0  0  0  0  0
    5.8269   -0.1872   19.9229 C   0  0  0  0  0  0  0  0  0  0  0  0
    6.0321   -0.8277   18.7293 C   0  0  0  0  0  0  0  0  0  0  0  0
    5.2220   -0.6948   17.6552 N   0  0  0  0  0  0  0  0  0  0  0  0
    4.1642    0.0708   17.7998 C   0  0  0  0  0  0  0  0  0  0  0  0
    3.8085    0.7320   19.0115 C   0  0  0  0  0  0  0  0  0  0  0  0
    2.6140    1.4837   19.1445 C   0  0  0  0  0  0  0  0  0  0  0  0
    2.3009    2.0950   20.3268 C   0  0  0  0  0  0  0  0  0  0  0  0
    3.1761    2.0081   21.4280 C   0  0  0  0  0  0  0  0  0  0  0  0
    4.3406    1.2904   21.3298 C   0  0  0  0  0  0  0  0  0  0  0  0
    4.6743    0.6236   20.1129 C   0  0  0  0  0  0  0  0  0  0  0  0
    9.1290    1.2294   22.4727 H   0  0  0  0  0  0  0  0  0  0  0  0
    8.2804   -2.0222   24.2792 H   0  0  0  0  0  0  0  0  0  0  0  0
    8.3227   -0.2530   24.6117 H   0  0  0  0  0  0  0  0  0  0  0  0
   10.4968   -0.0614   23.4904 H   0  0  0  0  0  0  0  0  0  0  0  0
    9.9465   -2.2283   26.1195 H   0  0  0  0  0  0  0  0  0  0  0  0
   11.7847   -3.0967   27.5149 H   0  0  0  0  0  0  0  0  0  0  0  0
   14.1118   -3.1027   26.6494 H   0  0  0  0  0  0  0  0  0  0  0  0
   14.5766   -2.2785   24.3510 H   0  0  0  0  0  0  0  0  0  0  0  0
    9.6071   -2.6551   22.1538 H   0  0  0  0  0  0  0  0  0  0  0  0
   10.2964   -1.2170   21.3338 H   0  0  0  0  0  0  0  0  0  0  0  0
    6.9070   -1.4630   18.6071 H   0  0  0  0  0  0  0  0  0  0  0  0
    3.5119    0.1835   16.9348 H   0  0  0  0  0  0  0  0  0  0  0  0
    1.9717    1.5920   18.2846 H   0  0  0  0  0  0  0  0  0  0  0  0
    1.3680    2.6420   20.4207 H   0  0  0  0  0  0  0  0  0  0  0  0
    2.9262    2.5170   22.3548 H   0  0  0  0  0  0  0  0  0  0  0  0
    5.0143    1.2439   22.1800 H   0  0  0  0  0  0  0  0  0  0  0  0
  1  2  2  0
  2  3  1  0
  4  3  1  6
  4  5  1  0
  5  6  1  0
  6  7  1  0
  7  8  2  0
  8  9  1  0
  9 10  2  0
 10 11  1  0
 11 12  2  0
 12 13  1  0
  6 14  1  0
  4 15  1  0
 15 16  2  0
 15 17  1  0
 17 18  1  0
 18 19  2  0
 19 20  1  0
 20 21  2  0
 21 22  1  0
 22 23  2  0
 23 24  1  0
 24 25  2  0
 25 26  1  0
 26 27  2  0
 17  2  1  0
 27 18  1  0
 14  4  1  0
 27 22  1  0
 12  7  1  0
  3 28  1  0
  5 29  1  0
  5 30  1  0
  6 31  1  1
  8 32  1  0
  9 33  1  0
 10 34  1  0
 11 35  1  0
 14 36  1  0
 14 37  1  0
 19 38  1  0
 21 39  1  0
 23 40  1  0
 24 41  1  0
 25 42  1  0
 26 43  1  0
M  END
$$$$
