
     RDKit          3D

 43 45  0  0  0  0  0  0  0  0999 V2000
   -7.6946   -7.3900  -27.5175 C   0  0  0  0  0  0  0  0  0  0  0  0
   -8.4035   -6.2227  -28.2228 C   0  0  0  0  0  0  0  0  0  0  0  0
   -8.3926   -4.8041  -27.6243 C   0  0  0  0  0  0  0  0  0  0  0  0
   -9.6610   -4.4672  -26.4946 C   0  0  0  0  0  0  0  0  0  0  0  0
   -8.5066   -4.2489  -25.5943 C   0  0  0  0  0  0  0  0  0  0  0  0
   -8.7622   -3.3716  -24.2534 N   0  0  0  0  0  0  0  0  0  0  0  0
   -7.7049   -2.8686  -23.6686 C   0  0  0  0  0  0  0  0  0  0  0  0
   -6.5033   -2.6435  -24.1474 O   0  0  0  0  0  0  0  0  0  0  0  0
   -8.5888   -2.5642  -22.2632 C   0  0  0  0  0  0  0  0  0  0  0  0
   -8.4914   -2.7344  -22.1901 C   0  0  0  0  0  0  0  0  0  0  0  0
   -8.5142   -2.6733  -22.2096 C   0  0  0  0  0  0  0  0  0  0  0  0
  -10.4394   -3.8352  -21.9568 N   0  0  0  0  0  0  0  0  0  0  0  0
  -11.6488   -3.4956  -22.0382 C   0  0  0  0  0  0  0  0  0  0  0  0
  -12.2361   -2.3468  -22.7000 C   0  0  0  0  0  0  0  0  0  0  0  0
  -13.4443   -1.7716  -22.8980 C   0  0  0  0  0  0  0  0  0  0  0  0
  -12.9469   -0.3023  -23.7736 C   0  0  0  0  0  0  0  0  0  0  0  0
  -12.8779   -0.2551  -23.6571 C   0  0  0  0  0  0  0  0  0  0  0  0
  -11.5285   -1.1822  -23.5328 C   0  0  0  0  0  0  0  0  0  0  0  0
  -10.2751   -1.0496  -23.8808 C   0  0  0  0  0  0  0  0  0  0  0  0
   -8.5465   -4.0176  -25.6864 C   0  0  0  0  0  0  0  0  0  0  0  0
   -9.6838   -4.2512  -26.6422 C   0  0  0  0  0  0  0  0  0  0  0  0
   -7.5984   -8.2402  -28.2131 H   0  0  0  0  0  0  0  0  0  0  0  0
   -8.2143   -7.7777  -26.6332 H   0  0  0  0  0  0  0  0  0  0  0  0
   -6.6733   -7.1165  -27.2251 H   0  0  0  0  0  0  0  0  0  0  0  0
   -7.8843   -6.1355  -29.1897 H   0  0  0  0  0  0  0  0  0  0  0  0
   -9.4053   -6.5563  -28.5207 H   0  0  0  0  0  0  0  0  0  0  0  0
   -7.5308   -4.4680  -26.9534 H   0  0  0  0  0  0  0  0  0  0  0  0
   -9.5742   -6.0209  -25.8020 H   0  0  0  0  0  0  0  0  0  0  0  0
  -10.9066   -4.6058  -26.5076 H   0  0  0  0  0  0  0  0  0  0  0  0
   -8.9622   -5.8254  -24.9939 H   0  0  0  0  0  0  0  0  0  0  0  0
   -7.6050   -5.4306  -25.2102 H   0  0  0  0  0  0  0  0  0  0  0  0
   -7.3734   -1.8856  -22.1972 H   0  0  0  0  0  0  0  0  0  0  0  0
   -9.0941   -3.5365  -23.2758 H   0  0  0  0  0  0  0  0  0  0  0  0
   -9.6699   -3.4156  -22.6023 H   0  0  0  0  0  0  0  0  0  0  0  0
  -12.3840   -4.1327  -21.5079 H   0  0  0  0  0  0  0  0  0  0  0  0
  -14.3541   -2.4308  -23.2379 H   0  0  0  0  0  0  0  0  0  0  0  0
  -13.9787    0.1426  -23.1301 H   0  0  0  0  0  0  0  0  0  0  0  0
  -12.3263    0.6657  -24.3550 H   0  0  0  0  0  0  0  0  0  0  0  0
   -9.2231   -1.0934  -23.4806 H   0  0  0  0  0  0  0  0  0  0  0  0
   -7.4506   -3.7359  -26.0438 H   0  0  0  0  0  0  0  0  0  0  0  0
   -8.1517   -2.9724  -26.2707 H   0  0  0  0  0  0  0  0  0  0  0  0
   -8.3210   -4.1554  -28.5734 H   0  0  0  0  0  0  0  0  0  0  0  0
  -10.3589   -3.1046  -27.2700 H   0  0  0  0  0  0  0  0  0  0  0  0
  1  2  1  0
  2  3  1  0
  3  4  1  0
  4  5  1  0
  5  6  1  0
  6  7  1  0
  7  8  2  0
  7  9  1  0
  9 10  1  0
 10 11  2  0
 11 12  1  0
 12 13  2  0
 13 14  1  0
 14 15  2  0
 15 16  1  0
 16 17  2  0
 17 18  1  0
 18 19  2  0
  6 20  1  0
 20 21  1  0
 21  3  1  0
 19 10  1  0
 19 14  1  0
  1 22  1  0
  1 23  1  0
  1 24  1  0
  2 25  1  0
  2 26  1  0
  3 27  1  0
  4 28  1  0
  4 29  1  0
  5 30  1  0
  5 31  1  0
  9 32  1  0
  9 33  1  0
 11 34  1  0
 13 35  1  0
 15 36  1  0
 16 37  1  0
 17 38  1  0
 18 39  1  0
 20 40  1  0
 20 41  1  0
 21 42  1  0
 21 43  1  0
M  END
