
     RDKit          3D

 43 45  0  0  0  0  0  0  0  0999 V2000
    8.2271   -6.2902   27.5254 C   0  0  0  0  0  0  0  0  0  0  0  0
    8.8995   -5.0876   28.2068 C   0  0  0  0  0  0  0  0  0  0  0  0
    8.8349   -3.6801   27.5858 C   0  0  0  0  0  0  0  0  0  0  0  0
   10.0831   -3.3176   26.4416 C   0  0  0  0  0  0  0  0  0  0  0  0
    8.9157   -3.1543   25.5464 C   0  0  0  0  0  0  0  0  0  0  0  0
    9.1314   -2.2905   24.1898 N   0  0  0  0  0  0  0  0  0  0  0  0
    8.0532   -1.8342   23.6048 C   0  0  0  0  0  0  0  0  0  0  0  0
    6.8477   -1.6434   24.0887 O   0  0  0  0  0  0  0  0  0  0  0  0
    8.9164   -1.5220   22.1883 C   0  0  0  0  0  0  0  0  0  0  0  0
    8.8245   -1.6967   22.1186 C   0  0  0  0  0  0  0  0  0  0  0  0
    8.8453   -1.6345   22.1370 C   0  0  0  0  0  0  0  0  0  0  0  0
   10.8082   -2.7325   21.8887 N   0  0  0  0  0  0  0  0  0  0  0  0
   12.0055   -2.3497   21.9558 C   0  0  0  0  0  0  0  0  0  0  0  0
   12.5567   -1.1705   22.5949 C   0  0  0  0  0  0  0  0  0  0  0  0
   13.7454   -0.5504   22.7748 C   0  0  0  0  0  0  0  0  0  0  0  0
   13.2028    0.9146   23.6304 C   0  0  0  0  0  0  0  0  0  0  0  0
   13.1314    0.9575   23.5137 C   0  0  0  0  0  0  0  0  0  0  0  0
   11.8145   -0.0180   23.4141 C   0  0  0  0  0  0  0  0  0  0  0  0
   10.5596    0.0765   23.7691 C   0  0  0  0  0  0  0  0  0  0  0  0
    8.9481   -2.9203   25.6345 C   0  0  0  0  0  0  0  0  0  0  0  0
   10.0993   -3.0986   26.5856 C   0  0  0  0  0  0  0  0  0  0  0  0
    8.1654   -7.1318   28.2352 H   0  0  0  0  0  0  0  0  0  0  0  0
    8.7541   -6.6738   26.6437 H   0  0  0  0  0  0  0  0  0  0  0  0
    7.1949   -6.0573   27.2362 H   0  0  0  0  0  0  0  0  0  0  0  0
    8.3841   -5.0029   29.1759 H   0  0  0  0  0  0  0  0  0  0  0  0
    9.9143   -5.3812   28.5026 H   0  0  0  0  0  0  0  0  0  0  0  0
    7.9574   -3.3852   26.9159 H   0  0  0  0  0  0  0  0  0  0  0  0
   10.0460   -4.8844   25.7746 H   0  0  0  0  0  0  0  0  0  0  0  0
   11.3328   -3.4125   26.4477 H   0  0  0  0  0  0  0  0  0  0  0  0
    9.4221   -4.7235   24.9679 H   0  0  0  0  0  0  0  0  0  0  0  0
    8.0534   -4.3728   25.1878 H   0  0  0  0  0  0  0  0  0  0  0  0
    7.6776   -0.8874   22.1204 H   0  0  0  0  0  0  0  0  0  0  0  0
    9.4622   -2.4596   23.2126 H   0  0  0  0  0  0  0  0  0  0  0  0
   10.0289   -2.3296   22.5330 H   0  0  0  0  0  0  0  0  0  0  0  0
   12.7590   -2.9693   21.4304 H   0  0  0  0  0  0  0  0  0  0  0  0
   14.6800   -1.1719   23.1185 H   0  0  0  0  0  0  0  0  0  0  0  0
   14.2141    1.3848   22.9724 H   0  0  0  0  0  0  0  0  0  0  0  0
   12.5527    1.8697   24.2008 H   0  0  0  0  0  0  0  0  0  0  0  0
    9.5071   -0.0105   23.3774 H   0  0  0  0  0  0  0  0  0  0  0  0
    7.8455   -2.6712   25.9954 H   0  0  0  0  0  0  0  0  0  0  0  0
    8.5210   -1.8802   26.2049 H   0  0  0  0  0  0  0  0  0  0  0  0
    8.7471   -3.0190   28.5249 H   0  0  0  0  0  0  0  0  0  0  0  0
   10.7381   -1.9191   27.1900 H   0  0  0  0  0  0  0  0  0  0  0  0
  1  2  1  0
  2  3  1  0
  3  4  1  0
  4  5  1  0
  5  6  1  0
  6  7  1  0
  7  8  2  0
  7  9  1  0
  9 10  1  0
 10 11  2  0
 11 12  1  0
 12 13  2  0
 13 14  1  0
 14 15  2  0
 15 16  1  0
 16 17  2  0
 17 18  1  0
 18 19  2  0
  6 20  1  0
 20 21  1  0
 21  3  1  0
 19 10  1  0
 19 14  1  0
  1 22  1  0
  1 23  1  0
  1 24  1  0
  2 25  1  0
  2 26  1  0
  3 27  1  0
  4 28  1  0
  4 29  1  0
  5 30  1  0
  5 31  1  0
  9 32  1  0
  9 33  1  0
 11 34  1  0
 13 35  1  0
 15 36  1  0
 16 37  1  0
 17 38  1  0
 18 39  1  0
 20 40  1  0
 20 41  1  0
 21 42  1  0
 21 43  1  0
M  END
$$$$
