
     RDKit          3D

 40 42  0  0  0  0  0  0  0  0999 V2000
   -9.9924    1.5512  -24.6244 C   0  0  0  0  0  0  0  0  0  0  0  0
   -9.7014    0.0531  -24.7164 C   0  0  0  0  0  0  0  0  0  0  0  0
  -10.4813   -0.7066  -23.6261 C   0  0  0  0  0  0  0  0  0  0  0  0
   -9.9153   -2.1041  -23.3547 C   0  0  0  0  0  0  0  0  0  0  0  0
   -8.4611   -2.0083  -23.1406 N   0  0  0  0  0  0  0  0  0  0  0  0
   -8.1599   -1.3156  -21.9713 C   0  0  0  0  0  0  0  0  0  0  0  0
   -8.9656   -1.2932  -21.0531 O   0  0  0  0  0  0  0  0  0  0  0  0
   -6.8939   -0.4766  -21.8775 C   0  0  0  0  0  0  0  0  0  0  0  0
   -6.1071   -0.4874  -20.5939 C   0  0  0  0  0  0  0  0  0  0  0  0
   -6.5966   -0.9122  -19.3872 C   0  0  0  0  0  0  0  0  0  0  0  0
   -5.9494   -0.7941  -18.1971 N   0  0  0  0  0  0  0  0  0  0  0  0
   -4.7883   -0.1883  -18.1954 C   0  0  0  0  0  0  0  0  0  0  0  0
   -4.1451    0.2872  -19.3711 C   0  0  0  0  0  0  0  0  0  0  0  0
   -2.8838    0.9336  -19.3373 C   0  0  0  0  0  0  0  0  0  0  0  0
   -2.2840    1.3553  -20.4937 C   0  0  0  0  0  0  0  0  0  0  0  0
   -2.8954    1.0902  -21.7400 C   0  0  0  0  0  0  0  0  0  0  0  0
   -4.1014    0.4384  -21.8022 C   0  0  0  0  0  0  0  0  0  0  0  0
   -4.7920    0.0774  -20.6154 C   0  0  0  0  0  0  0  0  0  0  0  0
   -7.8087   -1.6095  -24.3888 C   0  0  0  0  0  0  0  0  0  0  0  0
   -8.1761   -0.1678  -24.7260 C   0  0  0  0  0  0  0  0  0  0  0  0
   -9.4649    2.1066  -25.4080 H   0  0  0  0  0  0  0  0  0  0  0  0
  -11.0623    1.7675  -24.7129 H   0  0  0  0  0  0  0  0  0  0  0  0
   -9.6535    1.9386  -23.6567 H   0  0  0  0  0  0  0  0  0  0  0  0
  -10.0550   -0.3604  -25.6693 H   0  0  0  0  0  0  0  0  0  0  0  0
  -11.5431   -0.7550  -23.8963 H   0  0  0  0  0  0  0  0  0  0  0  0
  -10.4458   -0.1598  -22.6795 H   0  0  0  0  0  0  0  0  0  0  0  0
  -10.3588   -2.5361  -22.4572 H   0  0  0  0  0  0  0  0  0  0  0  0
  -10.0905   -2.7882  -24.1894 H   0  0  0  0  0  0  0  0  0  0  0  0
   -7.2399    0.5604  -22.0303 H   0  0  0  0  0  0  0  0  0  0  0  0
   -6.2443   -0.7176  -22.7120 H   0  0  0  0  0  0  0  0  0  0  0  0
   -7.5797   -1.3646  -19.3305 H   0  0  0  0  0  0  0  0  0  0  0  0
   -4.2884   -0.0626  -17.2318 H   0  0  0  0  0  0  0  0  0  0  0  0
   -2.3941    1.0567  -18.3754 H   0  0  0  0  0  0  0  0  0  0  0  0
   -1.3314    1.8772  -20.4674 H   0  0  0  0  0  0  0  0  0  0  0  0
   -2.3946    1.3814  -22.6587 H   0  0  0  0  0  0  0  0  0  0  0  0
   -4.5037    0.1732  -22.7775 H   0  0  0  0  0  0  0  0  0  0  0  0
   -8.1772   -2.2852  -25.1691 H   0  0  0  0  0  0  0  0  0  0  0  0
   -6.7281   -1.7702  -24.3265 H   0  0  0  0  0  0  0  0  0  0  0  0
   -7.6996    0.4968  -24.0025 H   0  0  0  0  0  0  0  0  0  0  0  0
   -7.7592    0.1314  -25.6955 H   0  0  0  0  0  0  0  0  0  0  0  0
  1  2  1  0
  2  3  1  0
  3  4  1  0
  4  5  1  0
  5  6  1  0
  6  7  2  0
  6  8  1  0
  8  9  1  0
  9 10  2  0
 10 11  1  0
 11 12  2  0
 12 13  1  0
 13 14  2  0
 14 15  1  0
 15 16  2  0
 16 17  1  0
 17 18  2  0
  5 19  1  0
 19 20  1  0
 20  2  1  0
 18  9  1  0
 18 13  1  0
  1 21  1  0
  1 22  1  0
  1 23  1  0
  2 24  1  0
  3 25  1  0
  3 26  1  0
  4 27  1  0
  4 28  1  0
  8 29  1  0
  8 30  1  0
 10 31  1  0
 12 32  1  0
 14 33  1  0
 15 34  1  0
 16 35  1  0
 17 36  1  0
 19 37  1  0
 19 38  1  0
 20 39  1  0
 20 40  1  0
M  END
