
     RDKit          3D

 40 42  0  0  0  0  0  0  0  0999 V2000
   10.3180    2.7858   24.4658 C   0  0  0  0  0  0  0  0  0  0  0  0
   10.0693    1.2826   24.5930 C   0  0  0  0  0  0  0  0  0  0  0  0
   10.8487    0.5220   23.5029 C   0  0  0  0  0  0  0  0  0  0  0  0
   10.3155   -0.8953   23.2702 C   0  0  0  0  0  0  0  0  0  0  0  0
    8.8555   -0.8425   23.0826 N   0  0  0  0  0  0  0  0  0  0  0  0
    8.5136   -0.1819   21.9059 C   0  0  0  0  0  0  0  0  0  0  0  0
    9.3009   -0.1566   20.9719 O   0  0  0  0  0  0  0  0  0  0  0  0
    7.2239    0.6211   21.8203 C   0  0  0  0  0  0  0  0  0  0  0  0
    6.4135    0.5634   20.5527 C   0  0  0  0  0  0  0  0  0  0  0  0
    6.8913    0.1275   19.3453 C   0  0  0  0  0  0  0  0  0  0  0  0
    6.2188    0.2042   18.1659 N   0  0  0  0  0  0  0  0  0  0  0  0
    5.0419    0.7788   18.1749 C   0  0  0  0  0  0  0  0  0  0  0  0
    4.4085    1.2607   19.3533 C   0  0  0  0  0  0  0  0  0  0  0  0
    3.1298    1.8725   19.3313 C   0  0  0  0  0  0  0  0  0  0  0  0
    2.5409    2.3015   20.4906 C   0  0  0  0  0  0  0  0  0  0  0  0
    3.1827    2.0780   21.7298 C   0  0  0  0  0  0  0  0  0  0  0  0
    4.4068    1.4599   21.7813 C   0  0  0  0  0  0  0  0  0  0  0  0
    5.0843    1.0934   20.5886 C   0  0  0  0  0  0  0  0  0  0  0  0
    8.2163   -0.4360   24.3351 C   0  0  0  0  0  0  0  0  0  0  0  0
    8.5510    1.0215   24.6366 C   0  0  0  0  0  0  0  0  0  0  0  0
    9.7907    3.3427   25.2484 H   0  0  0  0  0  0  0  0  0  0  0  0
   11.3832    3.0322   24.5291 H   0  0  0  0  0  0  0  0  0  0  0  0
    9.9506    3.1443   23.4974 H   0  0  0  0  0  0  0  0  0  0  0  0
   10.4519    0.8980   25.5468 H   0  0  0  0  0  0  0  0  0  0  0  0
   11.9163    0.5073   23.7532 H   0  0  0  0  0  0  0  0  0  0  0  0
   10.7805    1.0484   22.5465 H   0  0  0  0  0  0  0  0  0  0  0  0
   10.7534   -1.3334   22.3729 H   0  0  0  0  0  0  0  0  0  0  0  0
   10.5249   -1.5574   24.1146 H   0  0  0  0  0  0  0  0  0  0  0  0
    7.5446    1.6698   21.9458 H   0  0  0  0  0  0  0  0  0  0  0  0
    6.5969    0.3799   22.6718 H   0  0  0  0  0  0  0  0  0  0  0  0
    7.8850   -0.2997   19.2784 H   0  0  0  0  0  0  0  0  0  0  0  0
    4.5207    0.8716   17.2189 H   0  0  0  0  0  0  0  0  0  0  0  0
    2.6189    1.9631   18.3769 H   0  0  0  0  0  0  0  0  0  0  0  0
    1.5742    2.7972   20.4726 H   0  0  0  0  0  0  0  0  0  0  0  0
    2.6917    2.3743   22.6521 H   0  0  0  0  0  0  0  0  0  0  0  0
    4.8345    1.2252   22.7536 H   0  0  0  0  0  0  0  0  0  0  0  0
    8.6176   -1.0857   25.1213 H   0  0  0  0  0  0  0  0  0  0  0  0
    7.1394   -0.6266   24.2971 H   0  0  0  0  0  0  0  0  0  0  0  0
    8.0431    1.6584   23.9096 H   0  0  0  0  0  0  0  0  0  0  0  0
    8.1446    1.3291   25.6080 H   0  0  0  0  0  0  0  0  0  0  0  0
  1  2  1  0
  2  3  1  0
  3  4  1  0
  4  5  1  0
  5  6  1  0
  6  7  2  0
  6  8  1  0
  8  9  1  0
  9 10  2  0
 10 11  1  0
 11 12  2  0
 12 13  1  0
 13 14  2  0
 14 15  1  0
 15 16  2  0
 16 17  1  0
 17 18  2  0
  5 19  1  0
 19 20  1  0
 20  2  1  0
 18  9  1  0
 18 13  1  0
  1 21  1  0
  1 22  1  0
  1 23  1  0
  2 24  1  0
  3 25  1  0
  3 26  1  0
  4 27  1  0
  4 28  1  0
  8 29  1  0
  8 30  1  0
 10 31  1  0
 12 32  1  0
 14 33  1  0
 15 34  1  0
 16 35  1  0
 17 36  1  0
 19 37  1  0
 19 38  1  0
 20 39  1  0
 20 40  1  0
M  END
$$$$
