
     RDKit          3D

 48 52  0  0  0  0  0  0  0  0999 V2000
    6.8099   -3.9534   23.8440 C   0  0  0  0  0  0  0  0  0  0  0  0
    6.8991   -2.8463   22.9221 N   0  0  0  0  0  0  0  0  0  0  0  0
    5.9748   -2.6142   21.9370 C   0  0  0  0  0  0  0  0  0  0  0  0
    4.9332   -3.1913   21.7351 O   0  0  0  0  0  0  0  0  0  0  0  0
    6.4600   -1.5248   21.1926 N   0  0  0  0  0  0  0  0  0  0  0  0
    5.7717   -0.9287   20.1009 C   0  0  0  0  0  0  0  0  0  0  0  0
    6.2145   -1.1360   18.8223 C   0  0  0  0  0  0  0  0  0  0  0  0
    5.6224   -0.6346   17.7111 N   0  0  0  0  0  0  0  0  0  0  0  0
    4.5648    0.1204   17.8870 C   0  0  0  0  0  0  0  0  0  0  0  0
    4.0059    0.4234   19.1593 C   0  0  0  0  0  0  0  0  0  0  0  0
    2.8720    1.2629   19.2935 C   0  0  0  0  0  0  0  0  0  0  0  0
    2.3700    1.5551   20.5293 C   0  0  0  0  0  0  0  0  0  0  0  0
    2.9747    1.0154   21.6869 C   0  0  0  0  0  0  0  0  0  0  0  0
    4.0726    0.1973   21.5828 C   0  0  0  0  0  0  0  0  0  0  0  0
    4.6180   -0.1162   20.3081 C   0  0  0  0  0  0  0  0  0  0  0  0
    7.6422   -1.0309   21.7272 C   0  0  0  0  0  0  0  0  0  0  0  0
    8.2093   -0.0244   21.3928 O   0  0  0  0  0  0  0  0  0  0  0  0
    8.0646   -2.0122   22.7950 C   0  0  0  0  0  0  0  0  0  0  0  0
    8.7185   -1.3890   24.0488 C   0  0  0  0  0  0  0  0  0  0  0  0
   10.0063   -2.0295   23.6762 N   0  0  0  0  0  0  0  0  0  0  0  0
   10.9611   -2.9570   24.6940 S   0  0  0  0  0  0  0  0  0  0  0  0
   11.8129   -3.7279   23.8094 O   0  0  0  0  0  0  0  0  0  0  0  0
   11.5168   -2.0590   25.6856 O   0  0  0  0  0  0  0  0  0  0  0  0
    9.8895   -4.1323   25.5206 C   0  0  0  0  0  0  0  0  0  0  0  0
    9.9185   -5.4438   25.0628 C   0  0  0  0  0  0  0  0  0  0  0  0
    9.1526   -6.4145   25.6947 C   0  0  0  0  0  0  0  0  0  0  0  0
    8.4013   -6.0967   26.8217 C   0  0  0  0  0  0  0  0  0  0  0  0
    8.3887   -4.7879   27.2885 C   0  0  0  0  0  0  0  0  0  0  0  0
    9.0943   -3.7986   26.6136 C   0  0  0  0  0  0  0  0  0  0  0  0
    9.4272   -2.6854   22.4930 C   0  0  0  0  0  0  0  0  0  0  0  0
    7.4895   -4.7657   23.5611 H   0  0  0  0  0  0  0  0  0  0  0  0
    5.7855   -4.3241   23.8340 H   0  0  0  0  0  0  0  0  0  0  0  0
    7.0613   -3.6128   24.8520 H   0  0  0  0  0  0  0  0  0  0  0  0
    7.0989   -1.7417   18.6568 H   0  0  0  0  0  0  0  0  0  0  0  0
    4.1020    0.5366   16.9926 H   0  0  0  0  0  0  0  0  0  0  0  0
    2.4291    1.6587   18.3887 H   0  0  0  0  0  0  0  0  0  0  0  0
    1.5079    2.2097   20.6297 H   0  0  0  0  0  0  0  0  0  0  0  0
    2.5685    1.2567   22.6652 H   0  0  0  0  0  0  0  0  0  0  0  0
    4.5418   -0.2036   22.4740 H   0  0  0  0  0  0  0  0  0  0  0  0
    8.3008   -1.7071   25.0057 H   0  0  0  0  0  0  0  0  0  0  0  0
    8.7948   -0.3006   24.0131 H   0  0  0  0  0  0  0  0  0  0  0  0
   10.5455   -5.6806   24.2116 H   0  0  0  0  0  0  0  0  0  0  0  0
    9.1518   -7.4307   25.3174 H   0  0  0  0  0  0  0  0  0  0  0  0
    7.8490   -6.8703   27.3445 H   0  0  0  0  0  0  0  0  0  0  0  0
    7.8158   -4.5313   28.1739 H   0  0  0  0  0  0  0  0  0  0  0  0
    8.9433   -2.7725   26.9088 H   0  0  0  0  0  0  0  0  0  0  0  0
    9.9028   -2.3570   21.5684 H   0  0  0  0  0  0  0  0  0  0  0  0
    9.4077   -3.7776   22.5456 H   0  0  0  0  0  0  0  0  0  0  0  0
  1  2  1  0
  2  3  1  0
  3  4  2  0
  3  5  1  0
  5  6  1  0
  6  7  2  0
  7  8  1  0
  8  9  2  0
  9 10  1  0
 10 11  2  0
 11 12  1  0
 12 13  2  0
 13 14  1  0
 14 15  2  0
  5 16  1  0
 16 17  2  0
 16 18  1  0
 18 19  1  0
 19 20  1  0
 20 21  1  0
 21 22  2  0
 21 23  2  0
 21 24  1  0
 24 25  2  0
 25 26  1  0
 26 27  2  0
 27 28  1  0
 28 29  2  0
 20 30  1  0
 18  2  1  0
 29 24  1  0
 15  6  1  0
 30 18  1  0
 15 10  1  0
  1 31  1  0
  1 32  1  0
  1 33  1  0
  7 34  1  0
  9 35  1  0
 11 36  1  0
 12 37  1  0
 13 38  1  0
 14 39  1  0
 19 40  1  0
 19 41  1  0
 25 42  1  0
 26 43  1  0
 27 44  1  0
 28 45  1  0
 29 46  1  0
 30 47  1  0
 30 48  1  0
M  END
