
     RDKit          3D

 48 52  0  0  0  0  0  0  0  0999 V2000
   -7.4399   -3.0375  -23.5599 C   0  0  0  0  0  0  0  0  0  0  0  0
   -7.5018   -1.9332  -22.6324 N   0  0  0  0  0  0  0  0  0  0  0  0
   -6.5454   -1.7003  -21.6785 C   0  0  0  0  0  0  0  0  0  0  0  0
   -5.4955   -2.2741  -21.5137 O   0  0  0  0  0  0  0  0  0  0  0  0
   -7.0090   -0.6147  -20.9151 N   0  0  0  0  0  0  0  0  0  0  0  0
   -6.2862   -0.0190  -19.8457 C   0  0  0  0  0  0  0  0  0  0  0  0
   -6.6847   -0.2313  -18.5534 C   0  0  0  0  0  0  0  0  0  0  0  0
   -6.0570    0.2693  -17.4615 N   0  0  0  0  0  0  0  0  0  0  0  0
   -5.0087    1.0286  -17.6710 C   0  0  0  0  0  0  0  0  0  0  0  0
   -4.4943    1.3371  -18.9607 C   0  0  0  0  0  0  0  0  0  0  0  0
   -3.3686    2.1810  -19.1309 C   0  0  0  0  0  0  0  0  0  0  0  0
   -2.9099    2.4784  -20.3822 C   0  0  0  0  0  0  0  0  0  0  0  0
   -3.5515    1.9396  -21.5201 C   0  0  0  0  0  0  0  0  0  0  0  0
   -4.6423    1.1172  -21.3812 C   0  0  0  0  0  0  0  0  0  0  0  0
   -5.1431    0.7983  -20.0896 C   0  0  0  0  0  0  0  0  0  0  0  0
   -8.2104   -0.1237  -21.4079 C   0  0  0  0  0  0  0  0  0  0  0  0
   -8.7694    0.8798  -21.0517 O   0  0  0  0  0  0  0  0  0  0  0  0
   -8.6652   -1.1037  -22.4635 C   0  0  0  0  0  0  0  0  0  0  0  0
   -9.3635   -0.4795  -23.6927 C   0  0  0  0  0  0  0  0  0  0  0  0
  -10.6356   -1.1257  -23.2784 N   0  0  0  0  0  0  0  0  0  0  0  0
  -11.6211   -2.0540  -24.2659 S   0  0  0  0  0  0  0  0  0  0  0  0
  -12.4396   -2.8304  -23.3551 O   0  0  0  0  0  0  0  0  0  0  0  0
  -12.2133   -1.1554  -25.2356 O   0  0  0  0  0  0  0  0  0  0  0  0
  -10.5739   -3.2231  -25.1316 C   0  0  0  0  0  0  0  0  0  0  0  0
  -10.5827   -4.5360  -24.6767 C   0  0  0  0  0  0  0  0  0  0  0  0
   -9.8352   -5.5022  -25.3370 C   0  0  0  0  0  0  0  0  0  0  0  0
   -9.1237   -5.1786  -26.4879 C   0  0  0  0  0  0  0  0  0  0  0  0
   -9.1316   -3.8685  -26.9512 C   0  0  0  0  0  0  0  0  0  0  0  0
   -9.8174   -2.8836  -26.2500 C   0  0  0  0  0  0  0  0  0  0  0  0
  -10.0144   -1.7826  -22.1174 C   0  0  0  0  0  0  0  0  0  0  0  0
   -8.1066   -3.8530  -23.2564 H   0  0  0  0  0  0  0  0  0  0  0  0
   -6.4144   -3.4044  -23.5856 H   0  0  0  0  0  0  0  0  0  0  0  0
   -7.7266   -2.6951  -24.5578 H   0  0  0  0  0  0  0  0  0  0  0  0
   -7.5608   -0.8407  -18.3597 H   0  0  0  0  0  0  0  0  0  0  0  0
   -4.5173    1.4441  -16.7917 H   0  0  0  0  0  0  0  0  0  0  0  0
   -2.8967    2.5761  -18.2405 H   0  0  0  0  0  0  0  0  0  0  0  0
   -2.0540    3.1364  -20.5099 H   0  0  0  0  0  0  0  0  0  0  0  0
   -3.1796    2.1850  -22.5109 H   0  0  0  0  0  0  0  0  0  0  0  0
   -5.1401    0.7169  -22.2570 H   0  0  0  0  0  0  0  0  0  0  0  0
   -8.9773   -0.7935  -24.6641 H   0  0  0  0  0  0  0  0  0  0  0  0
   -9.4424    0.6085  -23.6514 H   0  0  0  0  0  0  0  0  0  0  0  0
  -11.1796   -4.7773  -23.8054 H   0  0  0  0  0  0  0  0  0  0  0  0
   -9.8180   -6.5194  -24.9627 H   0  0  0  0  0  0  0  0  0  0  0  0
   -8.5867   -5.9488  -27.0313 H   0  0  0  0  0  0  0  0  0  0  0  0
   -8.5900   -3.6075  -27.8548 H   0  0  0  0  0  0  0  0  0  0  0  0
   -9.6802   -1.8562  -26.5473 H   0  0  0  0  0  0  0  0  0  0  0  0
  -10.4596   -1.4585  -21.1763 H   0  0  0  0  0  0  0  0  0  0  0  0
   -9.9928   -2.8746  -22.1737 H   0  0  0  0  0  0  0  0  0  0  0  0
  1  2  1  0
  2  3  1  0
  3  4  2  0
  3  5  1  0
  5  6  1  0
  6  7  2  0
  7  8  1  0
  8  9  2  0
  9 10  1  0
 10 11  2  0
 11 12  1  0
 12 13  2  0
 13 14  1  0
 14 15  2  0
  5 16  1  0
 16 17  2  0
 16 18  1  0
 18 19  1  0
 19 20  1  0
 20 21  1  0
 21 22  2  0
 21 23  2  0
 21 24  1  0
 24 25  2  0
 25 26  1  0
 26 27  2  0
 27 28  1  0
 28 29  2  0
 20 30  1  0
 18  2  1  0
 29 24  1  0
 15  6  1  0
 30 18  1  0
 15 10  1  0
  1 31  1  0
  1 32  1  0
  1 33  1  0
  7 34  1  0
  9 35  1  0
 11 36  1  0
 12 37  1  0
 13 38  1  0
 14 39  1  0
 19 40  1  0
 19 41  1  0
 25 42  1  0
 26 43  1  0
 27 44  1  0
 28 45  1  0
 29 46  1  0
 30 47  1  0
 30 48  1  0
M  END
$$$$
