
     RDKit          3D

 65 70  0  0  0  0  0  0  0  0999 V2000
   -6.0774    2.0029  -25.0487 O   0  0  0  0  0  0  0  0  0  0  0  0
   -7.2500    2.0013  -24.7033 C   0  0  0  0  0  0  0  0  0  0  0  0
   -8.3106    1.1255  -25.3998 C   0  0  0  0  0  0  0  0  0  0  0  0
   -9.0914    0.2916  -24.4407 N   0  0  1  0  0  0  0  0  0  0  0  0
  -10.5457    0.2528  -24.7427 C   0  0  0  0  0  0  0  0  0  0  0  0
  -11.3216   -0.6326  -23.8081 C   0  0  0  0  0  0  0  0  0  0  0  0
  -12.7004   -0.4496  -23.7545 C   0  0  0  0  0  0  0  0  0  0  0  0
  -13.5157   -1.3945  -23.1526 C   0  0  0  0  0  0  0  0  0  0  0  0
  -12.9142   -2.5052  -22.5689 C   0  0  0  0  0  0  0  0  0  0  0  0
  -13.9074   -3.7025  -21.7824 Cl  0  0  0  0  0  0  0  0  0  0  0  0
  -11.5378   -2.6615  -22.5483 C   0  0  0  0  0  0  0  0  0  0  0  0
  -10.7096   -1.6885  -23.1160 C   0  0  0  0  0  0  0  0  0  0  0  0
   -9.1852   -1.7225  -23.0251 C   0  0  2  0  0  0  0  0  0  0  0  0
   -8.5320   -3.0773  -22.6800 C   0  0  0  0  0  0  0  0  0  0  0  0
   -7.2468   -2.7196  -21.9167 C   0  0  0  0  0  0  0  0  0  0  0  0
   -7.6008   -1.4638  -21.2769 N   0  0  0  0  0  0  0  0  0  0  0  0
   -6.7848   -0.9009  -20.2554 C   0  0  0  0  0  0  0  0  0  0  0  0
   -7.0277   -1.2711  -18.9576 C   0  0  0  0  0  0  0  0  0  0  0  0
   -6.2523   -0.9389  -17.8995 N   0  0  0  0  0  0  0  0  0  0  0  0
   -5.1972   -0.2029  -18.1346 C   0  0  0  0  0  0  0  0  0  0  0  0
   -4.8422    0.2916  -19.4219 C   0  0  0  0  0  0  0  0  0  0  0  0
   -3.7137    1.1339  -19.6075 C   0  0  0  0  0  0  0  0  0  0  0  0
   -3.3550    1.5540  -20.8584 C   0  0  0  0  0  0  0  0  0  0  0  0
   -4.1074    1.1415  -21.9846 C   0  0  0  0  0  0  0  0  0  0  0  0
   -5.2202    0.3517  -21.8276 C   0  0  0  0  0  0  0  0  0  0  0  0
   -5.6366   -0.0885  -20.5364 C   0  0  0  0  0  0  0  0  0  0  0  0
   -8.6123   -0.8017  -21.9174 C   0  0  0  0  0  0  0  0  0  0  0  0
   -8.9042    0.3704  -21.7495 O   0  0  0  0  0  0  0  0  0  0  0  0
   -8.6047   -1.1342  -24.3304 C   0  0  0  0  0  0  0  0  0  0  0  0
   -7.7507    2.7769  -23.6977 N   0  0  0  0  0  0  0  0  0  0  0  0
   -6.9225    3.5421  -22.7800 C   0  0  0  0  0  0  0  0  0  0  0  0
   -6.8288    5.0248  -23.1344 C   0  0  1  0  0  0  0  0  0  0  0  0
   -5.9598    5.8578  -22.1593 C   0  0  0  0  0  0  0  0  0  0  0  0
   -5.0830    6.2992  -23.3446 C   0  0  1  0  0  0  0  0  0  0  0  0
   -3.7399    6.0019  -23.1883 F   0  0  0  0  0  0  0  0  0  0  0  0
   -5.8304    5.3355  -24.2853 C   0  0  0  0  0  0  0  0  0  0  0  0
   -7.8027    0.4986  -26.1386 H   0  0  0  0  0  0  0  0  0  0  0  0
   -9.0131    1.7758  -25.9414 H   0  0  0  0  0  0  0  0  0  0  0  0
   -8.9960    0.6923  -23.4814 H   0  0  0  0  0  0  0  0  0  0  0  0
  -10.9805    1.2615  -24.7302 H   0  0  0  0  0  0  0  0  0  0  0  0
  -10.6887   -0.1358  -25.7634 H   0  0  0  0  0  0  0  0  0  0  0  0
  -13.1507    0.4281  -24.2188 H   0  0  0  0  0  0  0  0  0  0  0  0
  -14.5953   -1.2995  -23.1578 H   0  0  0  0  0  0  0  0  0  0  0  0
  -11.1190   -3.5505  -22.0892 H   0  0  0  0  0  0  0  0  0  0  0  0
   -8.3296   -3.6792  -23.5702 H   0  0  0  0  0  0  0  0  0  0  0  0
   -9.1725   -3.6653  -22.0188 H   0  0  0  0  0  0  0  0  0  0  0  0
   -6.3860   -2.5967  -22.5960 H   0  0  0  0  0  0  0  0  0  0  0  0
   -6.9690   -3.4459  -21.1474 H   0  0  0  0  0  0  0  0  0  0  0  0
   -7.9024   -1.8790  -18.7420 H   0  0  0  0  0  0  0  0  0  0  0  0
   -4.5661    0.0413  -17.2783 H   0  0  0  0  0  0  0  0  0  0  0  0
   -3.1564    1.4423  -18.7250 H   0  0  0  0  0  0  0  0  0  0  0  0
   -2.5013    2.2113  -20.9960 H   0  0  0  0  0  0  0  0  0  0  0  0
   -3.8247    1.4795  -22.9813 H   0  0  0  0  0  0  0  0  0  0  0  0
   -5.7801    0.0519  -22.7099 H   0  0  0  0  0  0  0  0  0  0  0  0
   -8.9313   -1.7155  -25.2017 H   0  0  0  0  0  0  0  0  0  0  0  0
   -7.5115   -1.1454  -24.3063 H   0  0  0  0  0  0  0  0  0  0  0  0
   -8.7302    2.6867  -23.4686 H   0  0  0  0  0  0  0  0  0  0  0  0
   -7.3277    3.4117  -21.7669 H   0  0  0  0  0  0  0  0  0  0  0  0
   -5.9158    3.1043  -22.7920 H   0  0  0  0  0  0  0  0  0  0  0  0
   -7.8255    5.4602  -23.2886 H   0  0  0  0  0  0  0  0  0  0  0  0
   -6.4682    6.6423  -21.5901 H   0  0  0  0  0  0  0  0  0  0  0  0
   -5.3984    5.2361  -21.4495 H   0  0  0  0  0  0  0  0  0  0  0  0
   -5.1453    7.3633  -23.6042 H   0  0  0  0  0  0  0  0  0  0  0  0
   -5.2270    4.4606  -24.5572 H   0  0  0  0  0  0  0  0  0  0  0  0
   -6.2477    5.7603  -25.2050 H   0  0  0  0  0  0  0  0  0  0  0  0
  1  2  2  0
  2  3  1  0
  3  4  1  0
  4  5  1  0
  5  6  1  0
  6  7  2  0
  7  8  1  0
  8  9  2  0
  9 10  1  0
  9 11  1  0
 11 12  2  0
 12 13  1  0
 13 14  1  1
 14 15  1  0
 15 16  1  0
 16 17  1  0
 17 18  2  0
 18 19  1  0
 19 20  2  0
 20 21  1  0
 21 22  2  0
 22 23  1  0
 23 24  2  0
 24 25  1  0
 25 26  2  0
 16 27  1  0
 27 28  2  0
 13 29  1  0
  2 30  1  0
 30 31  1  0
 31 32  1  0
 32 33  1  0
 33 34  1  0
 34 35  1  0
 34 36  1  0
 29  4  1  0
 36 32  1  0
 12  6  1  0
 27 13  1  0
 26 17  1  0
 26 21  1  0
  3 37  1  0
  3 38  1  0
  4 39  1  1
  5 40  1  0
  5 41  1  0
  7 42  1  0
  8 43  1  0
 11 44  1  0
 14 45  1  0
 14 46  1  0
 15 47  1  0
 15 48  1  0
 18 49  1  0
 20 50  1  0
 22 51  1  0
 23 52  1  0
 24 53  1  0
 25 54  1  0
 29 55  1  0
 29 56  1  0
 30 57  1  0
 31 58  1  0
 31 59  1  0
 32 60  1  6
 33 61  1  0
 33 62  1  0
 34 63  1  6
 36 64  1  0
 36 65  1  0
M  CHG  1   4   1
M  END
