mobile
  PyMOL3.1          3D                             0

 62 67  0  0  0  0  0  0  0  0999 V2000
   -9.1193    0.4532  -21.4990 O   0  0  0  0  0  0  0  0  0  0  0  0
   -8.6945   -0.6194  -21.9005 C   0  0  0  0  0  0  0  0  0  0  0  0
   -7.6301   -1.2973  -21.3814 N   0  0  0  0  0  0  0  0  0  0  0  0
   -6.7924   -0.8336  -20.3145 C   0  0  0  0  0  0  0  0  0  0  0  0
   -5.6204   -0.0509  -20.5421 C   0  0  0  0  0  0  0  0  0  0  0  0
   -5.1468    0.3206  -21.8282 C   0  0  0  0  0  0  0  0  0  0  0  0
   -4.0388    1.1115  -21.9701 C   0  0  0  0  0  0  0  0  0  0  0  0
   -3.3605    1.5848  -20.8547 C   0  0  0  0  0  0  0  0  0  0  0  0
   -3.7717    1.2519  -19.5947 C   0  0  0  0  0  0  0  0  0  0  0  0
   -4.8981    0.4111  -19.4025 C   0  0  0  0  0  0  0  0  0  0  0  0
   -5.3703    0.0296  -18.1212 C   0  0  0  0  0  0  0  0  0  0  0  0
   -6.4521   -0.7107  -17.9174 N   0  0  0  0  0  0  0  0  0  0  0  0
   -7.1364   -1.1117  -18.9969 C   0  0  0  0  0  0  0  0  0  0  0  0
   -7.4103   -2.6005  -22.0334 C   0  0  0  0  0  0  0  0  0  0  0  0
   -8.7276   -2.8546  -22.7645 C   0  0  0  0  0  0  0  0  0  0  0  0
   -9.2469   -1.4338  -23.0803 C   0  0  0  0  0  0  0  0  0  0  0  0
  -10.7771   -1.3352  -23.1738 C   0  0  0  0  0  0  0  0  0  0  0  0
  -11.3619   -0.4839  -24.1263 C   0  0  0  0  0  0  0  0  0  0  0  0
  -12.7441   -0.2943  -24.1098 C   0  0  0  0  0  0  0  0  0  0  0  0
  -13.5416   -0.9314  -23.1732 C   0  0  0  0  0  0  0  0  0  0  0  0
  -11.5895   -2.0212  -22.2669 C   0  0  0  0  0  0  0  0  0  0  0  0
  -12.9535   -1.7933  -22.2715 C   0  0  0  0  0  0  0  0  0  0  0  0
  -13.9465   -2.5852  -21.0740 Cl  0  0  0  0  0  0  0  0  0  0  0  0
   -8.5428   -0.8668  -24.3401 C   0  0  0  0  0  0  0  0  0  0  0  0
   -9.1263    0.4254  -24.6947 N   0  3  0  0  0  0  0  0  0  0  0  0
  -10.5188    0.2526  -25.1442 C   0  0  0  0  0  0  0  0  0  0  0  0
   -8.3107    1.2326  -25.5980 C   0  0  0  0  0  0  0  0  0  0  0  0
   -7.3071    2.1163  -24.8729 C   0  0  0  0  0  0  0  0  0  0  0  0
   -6.1845    2.3252  -25.3366 O   0  0  0  0  0  0  0  0  0  0  0  0
   -7.7243    2.6154  -23.7101 N   0  0  0  0  0  0  0  0  0  0  0  0
   -6.9004    3.4731  -22.8654 C   0  0  0  0  0  0  0  0  0  0  0  0
   -6.9201    4.9194  -23.3293 C   0  0  0  0  0  0  0  0  0  0  0  0
   -6.6725    5.9816  -22.3078 C   0  0  0  0  0  0  0  0  0  0  0  0
   -8.0422    5.7969  -22.8807 C   0  0  0  0  0  0  0  0  0  0  0  0
   -5.6698   -0.0259  -22.7070 H   0  0  0  0  0  0  0  0  0  0  0  0
   -3.6898    1.3699  -22.9584 H   0  0  0  0  0  0  0  0  0  0  0  0
   -2.4992    2.2242  -20.9838 H   0  0  0  0  0  0  0  0  0  0  0  0
   -3.2343    1.6306  -18.7380 H   0  0  0  0  0  0  0  0  0  0  0  0
   -4.8136    0.3629  -17.2576 H   0  0  0  0  0  0  0  0  0  0  0  0
   -8.0271   -1.6994  -18.8299 H   0  0  0  0  0  0  0  0  0  0  0  0
   -6.5701   -2.5505  -22.7410 H   0  0  0  0  0  0  0  0  0  0  0  0
   -7.2157   -3.3865  -21.2877 H   0  0  0  0  0  0  0  0  0  0  0  0
   -8.5592   -3.4254  -23.6894 H   0  0  0  0  0  0  0  0  0  0  0  0
   -9.4351   -3.3976  -22.1212 H   0  0  0  0  0  0  0  0  0  0  0  0
  -13.2002    0.3598  -24.8382 H   0  0  0  0  0  0  0  0  0  0  0  0
  -14.6063   -0.7548  -23.1491 H   0  0  0  0  0  0  0  0  0  0  0  0
  -11.1554   -2.7223  -21.5694 H   0  0  0  0  0  0  0  0  0  0  0  0
   -7.4712   -0.7390  -24.1316 H   0  0  0  0  0  0  0  0  0  0  0  0
   -8.6732   -1.5688  -25.1775 H   0  0  0  0  0  0  0  0  0  0  0  0
   -9.1806    0.9429  -23.8408 H   0  0  0  0  0  0  0  0  0  0  0  0
  -10.9606    1.2444  -25.3172 H   0  0  0  0  0  0  0  0  0  0  0  0
  -10.5192   -0.3186  -26.0836 H   0  0  0  0  0  0  0  0  0  0  0  0
   -7.7599    0.5578  -26.2688 H   0  0  0  0  0  0  0  0  0  0  0  0
   -8.9783    1.8759  -26.1906 H   0  0  0  0  0  0  0  0  0  0  0  0
   -8.6481    2.3897  -23.4012 H   0  0  0  0  0  0  0  0  0  0  0  0
   -7.2809    3.4264  -21.8343 H   0  0  0  0  0  0  0  0  0  0  0  0
   -5.8637    3.1066  -22.8908 H   0  0  0  0  0  0  0  0  0  0  0  0
   -6.5234    5.1070  -24.3378 H   0  0  0  0  0  0  0  0  0  0  0  0
   -6.4717    5.7049  -21.2631 H   0  0  0  0  0  0  0  0  0  0  0  0
   -6.0815    6.8720  -22.5715 H   0  0  0  0  0  0  0  0  0  0  0  0
   -8.8473    5.3827  -22.2570 H   0  0  0  0  0  0  0  0  0  0  0  0
   -8.4582    6.5498  -23.5655 H   0  0  0  0  0  0  0  0  0  0  0  0
  1  2  2  0  0  0  0
  2  3  1  0  0  0  0
  2 16  1  0  0  0  0
  3  4  1  0  0  0  0
  3 14  1  0  0  0  0
  4  5  4  0  0  0  0
  4 13  4  0  0  0  0
  5  6  4  0  0  0  0
  5 10  4  0  0  0  0
  6  7  4  0  0  0  0
  6 35  1  0  0  0  0
  7  8  4  0  0  0  0
  7 36  1  0  0  0  0
  8  9  4  0  0  0  0
  8 37  1  0  0  0  0
  9 10  4  0  0  0  0
  9 38  1  0  0  0  0
 10 11  4  0  0  0  0
 11 12  4  0  0  0  0
 11 39  1  0  0  0  0
 12 13  4  0  0  0  0
 13 40  1  0  0  0  0
 14 15  1  0  0  0  0
 14 41  1  0  0  0  0
 14 42  1  0  0  0  0
 15 16  1  0  0  0  0
 15 43  1  0  0  0  0
 15 44  1  0  0  0  0
 16 17  1  0  0  0  0
 16 24  1  0  0  0  0
 17 18  4  0  0  0  0
 17 21  4  0  0  0  0
 18 19  4  0  0  0  0
 18 26  1  0  0  0  0
 19 20  4  0  0  0  0
 19 45  1  0  0  0  0
 20 22  4  0  0  0  0
 20 46  1  0  0  0  0
 21 22  4  0  0  0  0
 21 47  1  0  0  0  0
 22 23  1  0  0  0  0
 24 25  1  0  0  0  0
 24 48  1  0  0  0  0
 24 49  1  0  0  0  0
 25 26  1  0  0  0  0
 25 27  1  0  0  0  0
 25 50  1  0  0  0  0
 26 51  1  0  0  0  0
 26 52  1  0  0  0  0
 27 28  1  0  0  0  0
 27 53  1  0  0  0  0
 27 54  1  0  0  0  0
 28 29  2  0  0  0  0
 28 30  1  0  0  0  0
 30 31  1  0  0  0  0
 30 55  1  0  0  0  0
 31 32  1  0  0  0  0
 31 56  1  0  0  0  0
 31 57  1  0  0  0  0
 32 33  1  0  0  0  0
 32 34  1  0  0  0  0
 32 58  1  0  0  0  0
 33 34  1  0  0  0  0
 33 59  1  0  0  0  0
 33 60  1  0  0  0  0
 34 61  1  0  0  0  0
 34 62  1  0  0  0  0
M  END
$$$$
