LIG(A-307)
     RDKit          3D

 34 39  0  0  1  0  0  0  0  0999 V2000
    9.4475    1.4603   21.3923 O   0  0  0  0  0  0  0  0  0  0  0  0
    9.0646    0.3803   21.8163 C   0  0  0  0  0  0  0  0  0  0  0  0
    8.0126   -0.3367   21.3265 N   0  0  0  0  0  0  0  0  0  0  0  0
    7.1384    0.0873   20.2726 C   0  0  0  0  0  0  0  0  0  0  0  0
    5.9484    0.8362   20.5139 C   0  0  0  0  0  0  0  0  0  0  0  0
    5.4886    1.2092   21.8049 C   0  0  0  0  0  0  0  0  0  0  0  0
    4.3606    1.9671   21.9592 C   0  0  0  0  0  0  0  0  0  0  0  0
    3.6454    2.4051   20.8533 C   0  0  0  0  0  0  0  0  0  0  0  0
    4.0412    2.0682   19.5892 C   0  0  0  0  0  0  0  0  0  0  0  0
    5.1892    1.2623   19.3840 C   0  0  0  0  0  0  0  0  0  0  0  0
    5.6470    0.8783   18.0979 C   0  0  0  0  0  0  0  0  0  0  0  0
    6.7470    0.1684   17.8807 N   0  0  0  0  0  0  0  0  0  0  0  0
    7.4652   -0.1976   18.9506 C   0  0  0  0  0  0  0  0  0  0  0  0
    7.8467   -1.6378   21.9984 C   0  0  0  0  0  0  0  0  0  0  0  0
    9.1849   -1.8417   22.7052 C   0  0  0  0  0  0  0  0  0  0  0  0
    9.6659   -0.4017   22.9942 C   0  0  1  0  0  0  0  0  0  0  0  0
   11.1939   -0.2557   23.0549 C   0  0  0  0  0  0  0  0  0  0  0  0
   11.7710    0.6263   23.9839 C   0  0  0  0  0  0  0  0  0  0  0  0
   13.1470    0.8574   23.9367 C   0  0  0  0  0  0  0  0  0  0  0  0
   13.9438    0.2345   22.9925 C   0  0  0  0  0  0  0  0  0  0  0  0
   12.0077   -0.9266   22.1398 C   0  0  0  0  0  0  0  0  0  0  0  0
   13.3647   -0.6575   22.1136 C   0  0  0  0  0  0  0  0  0  0  0  0
   14.3576   -1.4334   20.9054 Cl  0  0  0  0  0  0  0  0  0  0  0  0
    8.9700    0.1592   24.2613 C   0  0  0  0  0  0  0  0  0  0  0  0
    9.5200    1.4732   24.5883 N   0  0  2  0  0  0  0  0  0  0  0  0
   10.9261    1.3492   25.0111 C   0  0  0  0  0  0  0  0  0  0  0  0
    8.6982    2.2671   25.4985 C   0  0  0  0  0  0  0  0  0  0  0  0
    7.6530    3.1091   24.7827 C   0  0  0  0  0  0  0  0  0  0  0  0
    6.5341    3.2900   25.2669 O   0  0  0  0  0  0  0  0  0  0  0  0
    8.0318    3.6052   23.6056 N   0  0  0  0  0  0  0  0  0  0  0  0
    7.1646    4.4272   22.7678 C   0  0  0  0  0  0  0  0  0  0  0  0
    7.1476    5.8782   23.2139 C   0  0  0  0  0  0  0  0  0  0  0  0
    6.8474    6.9202   22.1850 C   0  0  0  0  0  0  0  0  0  0  0  0
    8.2325    6.7842   22.7317 C   0  0  0  0  0  0  0  0  0  0  0  0
  1  2  2  0
  2  3  1  0
 16  2  1  0
  3  4  1  0
  3 14  1  0
  4  5  1  0
  4 13  2  0
  5  6  2  0
  5 10  1  0
  6  7  1  0
  7  8  2  0
  8  9  1  0
  9 10  2  0
 10 11  1  0
 11 12  2  0
 12 13  1  0
 14 15  1  0
 16 15  1  6
 16 17  1  0
 16 24  1  0
 17 18  1  0
 17 21  2  0
 18 19  2  0
 18 26  1  0
 19 20  1  0
 20 22  2  0
 21 22  1  0
 22 23  1  0
 24 25  1  0
 25 26  1  0
 25 27  1  1
 27 28  1  0
 28 29  2  0
 28 30  1  0
 30 31  1  0
 31 32  1  0
 32 33  1  0
 32 34  1  0
 33 34  1  0
M  CHG  1  25   1
M  END
$$$$
