
     RDKit          3D

 44 47  0  0  0  0  0  0  0  0999 V2000
   -8.5920   -0.6836  -21.1098 O   0  0  0  0  0  0  0  0  0  0  0  0
   -7.7130   -1.1328  -21.8236 C   0  0  0  0  0  0  0  0  0  0  0  0
   -6.3538   -0.4100  -21.8408 C   0  0  0  0  0  0  0  0  0  0  0  0
   -5.5660   -0.3561  -20.5266 C   0  0  0  0  0  0  0  0  0  0  0  0
   -6.1201   -0.7241  -19.2839 C   0  0  0  0  0  0  0  0  0  0  0  0
   -5.4540   -0.6405  -18.1200 N   0  0  0  0  0  0  0  0  0  0  0  0
   -4.1970   -0.1651  -18.1333 C   0  0  0  0  0  0  0  0  0  0  0  0
   -3.5436    0.2072  -19.3111 C   0  0  0  0  0  0  0  0  0  0  0  0
   -2.2191    0.6749  -19.2949 C   0  0  0  0  0  0  0  0  0  0  0  0
   -1.5855    1.0362  -20.4914 C   0  0  0  0  0  0  0  0  0  0  0  0
   -2.2817    0.9614  -21.7035 C   0  0  0  0  0  0  0  0  0  0  0  0
   -3.6072    0.5114  -21.7120 C   0  0  0  0  0  0  0  0  0  0  0  0
   -4.2426    0.1151  -20.5292 C   0  0  0  0  0  0  0  0  0  0  0  0
   -8.0178   -2.2125  -22.6490 N   0  0  0  0  0  0  0  0  0  0  0  0
   -7.2034   -2.4622  -23.8302 C   0  0  0  0  0  0  0  0  0  0  0  0
   -7.7741   -1.5536  -24.9195 C   0  0  0  0  0  0  0  0  0  0  0  0
   -9.1994   -2.0457  -25.2127 C   0  0  0  0  0  0  0  0  0  0  0  0
   -9.7949   -1.4964  -26.5039 C   0  0  0  0  0  0  0  0  0  0  0  0
  -10.0344   -2.9300  -26.9718 C   0  0  0  0  0  0  0  0  0  0  0  0
   -9.2846   -3.4711  -25.7626 C   0  0  0  0  0  0  0  0  0  0  0  0
  -10.0726   -1.9018  -23.9503 C   0  0  0  0  0  0  0  0  0  0  0  0
   -9.4156   -2.6564  -22.7749 C   0  0  0  0  0  0  0  0  0  0  0  0
   -5.7358   -0.9009  -22.5940 H   0  0  0  0  0  0  0  0  0  0  0  0
   -6.5288    0.6212  -22.1698 H   0  0  0  0  0  0  0  0  0  0  0  0
   -7.1510   -1.0636  -19.2616 H   0  0  0  0  0  0  0  0  0  0  0  0
   -3.6718   -0.0636  -17.1882 H   0  0  0  0  0  0  0  0  0  0  0  0
   -1.6800    0.7554  -18.3551 H   0  0  0  0  0  0  0  0  0  0  0  0
   -0.5585    1.3863  -20.4820 H   0  0  0  0  0  0  0  0  0  0  0  0
   -1.8036    1.2619  -22.6339 H   0  0  0  0  0  0  0  0  0  0  0  0
   -4.1579    0.4734  -22.6451 H   0  0  0  0  0  0  0  0  0  0  0  0
   -6.1399   -2.2646  -23.6560 H   0  0  0  0  0  0  0  0  0  0  0  0
   -7.3050   -3.5137  -24.1275 H   0  0  0  0  0  0  0  0  0  0  0  0
   -7.1498   -1.5930  -25.8183 H   0  0  0  0  0  0  0  0  0  0  0  0
   -7.8130   -0.5169  -24.5544 H   0  0  0  0  0  0  0  0  0  0  0  0
  -10.6874   -0.8832  -26.3601 H   0  0  0  0  0  0  0  0  0  0  0  0
   -9.0774   -0.9594  -27.1347 H   0  0  0  0  0  0  0  0  0  0  0  0
   -9.5831   -3.1810  -27.9339 H   0  0  0  0  0  0  0  0  0  0  0  0
  -11.0935   -3.1998  -26.9831 H   0  0  0  0  0  0  0  0  0  0  0  0
   -8.3136   -3.9198  -26.0092 H   0  0  0  0  0  0  0  0  0  0  0  0
   -9.8732   -4.1672  -25.1535 H   0  0  0  0  0  0  0  0  0  0  0  0
  -11.0765   -2.3037  -24.1363 H   0  0  0  0  0  0  0  0  0  0  0  0
  -10.1634   -0.8387  -23.7008 H   0  0  0  0  0  0  0  0  0  0  0  0
   -9.4349   -3.7369  -22.9557 H   0  0  0  0  0  0  0  0  0  0  0  0
   -9.9830   -2.4808  -21.8545 H   0  0  0  0  0  0  0  0  0  0  0  0
  1  2  2  0
  2  3  1  0
  3  4  1  0
  4  5  2  0
  5  6  1  0
  6  7  2  0
  7  8  1  0
  8  9  2  0
  9 10  1  0
 10 11  2  0
 11 12  1  0
 12 13  2  0
  2 14  1  0
 14 15  1  0
 15 16  1  0
 16 17  1  0
 17 18  1  0
 18 19  1  0
 19 20  1  0
 17 21  1  0
 21 22  1  0
 13  4  1  0
 22 14  1  0
 13  8  1  0
 20 17  1  0
  3 23  1  0
  3 24  1  0
  5 25  1  0
  7 26  1  0
  9 27  1  0
 10 28  1  0
 11 29  1  0
 12 30  1  0
 15 31  1  0
 15 32  1  0
 16 33  1  0
 16 34  1  0
 18 35  1  0
 18 36  1  0
 19 37  1  0
 19 38  1  0
 20 39  1  0
 20 40  1  0
 21 41  1  0
 21 42  1  0
 22 43  1  0
 22 44  1  0
M  END
