
     RDKit          3D

 57 60  0  0  0  0  0  0  0  0999 V2000
   -7.7582   -8.3898  -25.4525 C   0  0  0  0  0  0  0  0  0  0  0  0
   -7.3612   -7.9367  -24.0443 C   0  0  0  0  0  0  0  0  0  0  0  0
   -6.8674   -6.5131  -24.0683 C   0  0  0  0  0  0  0  0  0  0  0  0
   -5.6808   -6.2529  -24.1455 O   0  0  0  0  0  0  0  0  0  0  0  0
   -7.8425   -5.5457  -24.0697 N   0  0  0  0  0  0  0  0  0  0  0  0
   -7.5977   -4.1741  -24.2844 C   0  0  0  0  0  0  0  0  0  0  0  0
   -6.6061   -3.7472  -25.1667 C   0  0  0  0  0  0  0  0  0  0  0  0
   -6.3990   -2.3891  -25.3692 C   0  0  0  0  0  0  0  0  0  0  0  0
   -7.1508   -1.4470  -24.6797 C   0  0  0  0  0  0  0  0  0  0  0  0
   -8.1284   -1.8759  -23.7758 C   0  0  0  0  0  0  0  0  0  0  0  0
   -8.7785   -0.9102  -22.9438 N   0  0  0  0  0  0  0  0  0  0  0  0
   -9.7969   -0.0573  -23.5659 C   0  0  0  0  0  0  0  0  0  0  0  0
  -11.0551   -0.8483  -23.8627 C   0  0  0  0  0  0  0  0  0  0  0  0
  -11.6743   -1.4804  -22.7943 C   0  0  0  0  0  0  0  0  0  0  0  0
  -12.8798   -2.1469  -22.9559 C   0  0  0  0  0  0  0  0  0  0  0  0
  -13.4185   -2.3038  -24.2279 C   0  0  0  0  0  0  0  0  0  0  0  0
  -12.7539   -1.7711  -25.3208 C   0  0  0  0  0  0  0  0  0  0  0  0
  -11.5933   -1.0297  -25.1351 C   0  0  0  0  0  0  0  0  0  0  0  0
   -8.1707   -0.4766  -21.7746 C   0  0  0  0  0  0  0  0  0  0  0  0
   -8.3922    0.6202  -21.3006 O   0  0  0  0  0  0  0  0  0  0  0  0
   -7.2550   -1.4854  -21.0669 C   0  0  0  0  0  0  0  0  0  0  0  0
   -6.4754   -0.8851  -19.9361 C   0  0  0  0  0  0  0  0  0  0  0  0
   -6.7425   -1.1684  -18.6230 C   0  0  0  0  0  0  0  0  0  0  0  0
   -6.0704   -0.6555  -17.5567 N   0  0  0  0  0  0  0  0  0  0  0  0
   -5.0885    0.1749  -17.8130 C   0  0  0  0  0  0  0  0  0  0  0  0
   -4.7010    0.5592  -19.1274 C   0  0  0  0  0  0  0  0  0  0  0  0
   -3.6437    1.4700  -19.3697 C   0  0  0  0  0  0  0  0  0  0  0  0
   -3.3368    1.8666  -20.6415 C   0  0  0  0  0  0  0  0  0  0  0  0
   -4.0324    1.3201  -21.7407 C   0  0  0  0  0  0  0  0  0  0  0  0
   -5.0354    0.4087  -21.5363 C   0  0  0  0  0  0  0  0  0  0  0  0
   -5.4145    0.0226  -20.2209 C   0  0  0  0  0  0  0  0  0  0  0  0
   -8.3773   -3.2321  -23.6105 C   0  0  0  0  0  0  0  0  0  0  0  0
   -6.9143   -8.2767  -26.1405 H   0  0  0  0  0  0  0  0  0  0  0  0
   -8.0627   -9.4389  -25.4522 H   0  0  0  0  0  0  0  0  0  0  0  0
   -8.5936   -7.8012  -25.8467 H   0  0  0  0  0  0  0  0  0  0  0  0
   -8.1993   -8.0323  -23.3502 H   0  0  0  0  0  0  0  0  0  0  0  0
   -6.5263   -8.5278  -23.6629 H   0  0  0  0  0  0  0  0  0  0  0  0
   -8.7758   -5.7974  -23.7802 H   0  0  0  0  0  0  0  0  0  0  0  0
   -6.0032   -4.4741  -25.6915 H   0  0  0  0  0  0  0  0  0  0  0  0
   -5.6255   -2.0616  -26.0599 H   0  0  0  0  0  0  0  0  0  0  0  0
   -6.9562   -0.3826  -24.8061 H   0  0  0  0  0  0  0  0  0  0  0  0
   -9.9858    0.7491  -22.8486 H   0  0  0  0  0  0  0  0  0  0  0  0
   -9.4037    0.3975  -24.4843 H   0  0  0  0  0  0  0  0  0  0  0  0
  -11.1340   -1.4843  -21.8608 H   0  0  0  0  0  0  0  0  0  0  0  0
  -13.3894   -2.5693  -22.0976 H   0  0  0  0  0  0  0  0  0  0  0  0
  -14.3251   -2.8809  -24.3727 H   0  0  0  0  0  0  0  0  0  0  0  0
  -13.1032   -1.9810  -26.3251 H   0  0  0  0  0  0  0  0  0  0  0  0
  -11.0767   -0.6595  -26.0099 H   0  0  0  0  0  0  0  0  0  0  0  0
   -6.5642   -1.9000  -21.8097 H   0  0  0  0  0  0  0  0  0  0  0  0
   -7.8795   -2.3173  -20.7088 H   0  0  0  0  0  0  0  0  0  0  0  0
   -7.5500   -1.8539  -18.3623 H   0  0  0  0  0  0  0  0  0  0  0  0
   -4.5765    0.6188  -16.9581 H   0  0  0  0  0  0  0  0  0  0  0  0
   -3.1011    1.8640  -18.5170 H   0  0  0  0  0  0  0  0  0  0  0  0
   -2.5691    2.6138  -20.8102 H   0  0  0  0  0  0  0  0  0  0  0  0
   -3.7665    1.6231  -22.7498 H   0  0  0  0  0  0  0  0  0  0  0  0
   -5.5632   -0.0129  -22.3880 H   0  0  0  0  0  0  0  0  0  0  0  0
   -9.1248   -3.5509  -22.8875 H   0  0  0  0  0  0  0  0  0  0  0  0
  1  2  1  0
  2  3  1  0
  3  4  2  0
  3  5  1  0
  5  6  1  0
  6  7  2  0
  7  8  1  0
  8  9  2  0
  9 10  1  0
 10 11  1  0
 11 12  1  0
 12 13  1  0
 13 14  2  0
 14 15  1  0
 15 16  2  0
 16 17  1  0
 17 18  2  0
 11 19  1  0
 19 20  2  0
 19 21  1  0
 21 22  1  0
 22 23  2  0
 23 24  1  0
 24 25  2  0
 25 26  1  0
 26 27  2  0
 27 28  1  0
 28 29  2  0
 29 30  1  0
 30 31  2  0
 10 32  2  0
 32  6  1  0
 18 13  1  0
 31 22  1  0
 31 26  1  0
  1 33  1  0
  1 34  1  0
  1 35  1  0
  2 36  1  0
  2 37  1  0
  5 38  1  0
  7 39  1  0
  8 40  1  0
  9 41  1  0
 12 42  1  0
 12 43  1  0
 14 44  1  0
 15 45  1  0
 16 46  1  0
 17 47  1  0
 18 48  1  0
 21 49  1  0
 21 50  1  0
 23 51  1  0
 25 52  1  0
 27 53  1  0
 28 54  1  0
 29 55  1  0
 30 56  1  0
 32 57  1  0
M  END
