
     RDKit          3D

 54 59  0  0  0  0  0  0  0  0999 V2000
    4.9808    0.7546   28.2787 C   0  0  0  0  0  0  0  0  0  0  0  0
    5.9410    0.6441   27.1991 N   0  0  0  0  0  0  0  0  0  0  0  0
    6.4484    1.7373   26.5825 C   0  0  0  0  0  0  0  0  0  0  0  0
    6.1836    2.8855   26.9028 O   0  0  0  0  0  0  0  0  0  0  0  0
    7.4067    1.4851   25.4079 C   0  0  0  0  0  0  0  0  0  0  0  0
    7.5825    0.1068   25.0056 N   0  0  0  0  0  0  0  0  0  0  0  0
    8.7207   -0.6070   25.3513 C   0  0  0  0  0  0  0  0  0  0  0  0
    9.6961   -0.1634   25.9272 O   0  0  0  0  0  0  0  0  0  0  0  0
    8.4618   -1.9677   24.8102 C   0  0  0  0  0  0  0  0  0  0  0  0
    9.3367   -2.9918   24.5530 C   0  0  0  0  0  0  0  0  0  0  0  0
    8.8273   -4.1263   23.8836 C   0  0  0  0  0  0  0  0  0  0  0  0
    7.4954   -4.2672   23.6309 C   0  0  0  0  0  0  0  0  0  0  0  0
    6.9245   -5.7196   22.8682 Cl  0  0  0  0  0  0  0  0  0  0  0  0
    6.4874   -3.3074   24.1561 C   0  0  0  0  0  0  0  0  0  0  0  0
    7.1475   -1.9594   24.2896 C   0  0  1  0  0  0  0  0  0  0  0  0
    6.7119   -0.6756   24.2529 C   0  0  2  0  0  0  0  0  0  0  0  0
    6.7074   -1.4440   21.6177 C   0  0  2  0  0  0  0  0  0  0  0  0
    7.9290    0.5110   21.2845 C   0  0  0  0  0  0  0  0  0  0  0  0
    8.1651    1.6061   20.8475 O   0  0  0  0  0  0  0  0  0  0  0  0
    6.8467   -0.3097   20.7925 N   0  0  0  0  0  0  0  0  0  0  0  0
    5.9032   -0.0446   19.8286 C   0  0  0  0  0  0  0  0  0  0  0  0
    6.1926   -0.3864   18.5189 C   0  0  0  0  0  0  0  0  0  0  0  0
    5.3884   -0.2202   17.4456 N   0  0  0  0  0  0  0  0  0  0  0  0
    4.2466    0.3938   17.6561 C   0  0  0  0  0  0  0  0  0  0  0  0
    3.8566    0.9393   18.9104 C   0  0  0  0  0  0  0  0  0  0  0  0
    2.6674    1.7036   19.0272 C   0  0  0  0  0  0  0  0  0  0  0  0
    2.3110    2.2614   20.2214 C   0  0  0  0  0  0  0  0  0  0  0  0
    3.1473    2.0944   21.3437 C   0  0  0  0  0  0  0  0  0  0  0  0
    4.3136    1.3749   21.2522 C   0  0  0  0  0  0  0  0  0  0  0  0
    4.7003    0.7530   20.0315 C   0  0  0  0  0  0  0  0  0  0  0  0
    6.8698   -1.3375   21.7631 C   0  0  0  0  0  0  0  0  0  0  0  0
    8.7085   -0.2608   22.2753 C   0  0  0  0  0  0  0  0  0  0  0  0
    9.9522    0.1154   22.5996 C   0  0  0  0  0  0  0  0  0  0  0  0
   10.6028    1.1374   22.0343 F   0  0  0  0  0  0  0  0  0  0  0  0
    4.0606    0.2130   28.0324 H   0  0  0  0  0  0  0  0  0  0  0  0
    4.7482    1.8126   28.4142 H   0  0  0  0  0  0  0  0  0  0  0  0
    5.3935    0.3536   29.2110 H   0  0  0  0  0  0  0  0  0  0  0  0
    6.2421   -0.2723   26.9049 H   0  0  0  0  0  0  0  0  0  0  0  0
    7.0613    2.0977   24.5695 H   0  0  0  0  0  0  0  0  0  0  0  0
    8.3978    1.8470   25.6942 H   0  0  0  0  0  0  0  0  0  0  0  0
   10.3893   -2.9272   24.8055 H   0  0  0  0  0  0  0  0  0  0  0  0
    9.5051   -4.9292   23.6230 H   0  0  0  0  0  0  0  0  0  0  0  0
    6.1645   -3.6558   25.1564 H   0  0  0  0  0  0  0  0  0  0  0  0
    5.5742   -3.3122   23.5540 H   0  0  0  0  0  0  0  0  0  0  0  0
    5.7905   -0.2137   23.9491 H   0  0  0  0  0  0  0  0  0  0  0  0
    7.1522   -0.8639   18.3241 H   0  0  0  0  0  0  0  0  0  0  0  0
    3.5831    0.5121   16.8032 H   0  0  0  0  0  0  0  0  0  0  0  0
    2.0741    1.8508   18.1308 H   0  0  0  0  0  0  0  0  0  0  0  0
    1.3965    2.8414   20.3044 H   0  0  0  0  0  0  0  0  0  0  0  0
    2.8685    2.5541   22.2850 H   0  0  0  0  0  0  0  0  0  0  0  0
    4.9622    1.3209   22.1202 H   0  0  0  0  0  0  0  0  0  0  0  0
    8.2971   -1.0269   22.8451 H   0  0  0  0  0  0  0  0  0  0  0  0
    7.7795   -1.8334   21.3181 H   0  0  0  0  0  0  0  0  0  0  0  0
   10.5682   -0.3499   23.3669 H   0  0  0  0  0  0  0  0  0  0  0  0
  1  2  1  0
  2  3  1  0
  3  4  2  0
  3  5  1  0
  5  6  1  0
  6  7  1  0
  7  8  2  0
  7  9  1  0
  9 10  2  0
 10 11  1  0
 11 12  2  0
 12 13  1  0
 12 14  1  0
 15 14  1  1
 15 16  1  0
 16 17  1  0
 17 18  1  6
 18 19  2  0
 18 20  1  0
 20 21  1  0
 21 22  2  0
 22 23  1  0
 23 24  2  0
 24 25  1  0
 25 26  2  0
 26 27  1  0
 27 28  2  0
 28 29  1  0
 29 30  2  0
 20 31  1  0
 31 32  1  0
 32 33  2  0
 33 34  1  0
 16  6  1  0
 32 17  1  0
 15  9  1  0
 30 21  1  0
 17 15  1  0
 30 25  1  0
  1 35  1  0
  1 36  1  0
  1 37  1  0
  2 38  1  0
  5 39  1  0
  5 40  1  0
 10 41  1  0
 11 42  1  0
 14 43  1  0
 14 44  1  0
 16 45  1  1
 22 46  1  0
 24 47  1  0
 26 48  1  0
 27 49  1  0
 28 50  1  0
 29 51  1  0
 31 52  1  0
 31 53  1  0
 33 54  1  0
M  END
$$$$
