
     RDKit          3D

 38 41  0  0  0  0  0  0  0  0999 V2000
  -11.5259   -3.5971  -23.6807 C   0  0  0  0  0  0  0  0  0  0  0  0
  -10.6854   -2.5923  -24.4470 C   0  0  2  0  0  0  0  0  0  0  0  0
   -9.4496   -3.2427  -25.1023 C   0  0  0  0  0  0  0  0  0  0  0  0
   -8.4182   -3.3383  -23.9879 C   0  0  0  0  0  0  0  0  0  0  0  0
   -9.2492   -2.1165  -22.5108 C   0  0  0  0  0  0  0  0  0  0  0  0
   -8.6515   -1.0941  -21.6194 C   0  0  0  0  0  0  0  0  0  0  0  0
   -9.0238   -0.0336  -21.1852 O   0  0  0  0  0  0  0  0  0  0  0  0
   -7.4428   -1.6113  -21.0810 N   0  0  0  0  0  0  0  0  0  0  0  0
   -6.6465   -1.0245  -20.0461 C   0  0  0  0  0  0  0  0  0  0  0  0
   -6.8905   -1.3130  -18.7327 C   0  0  0  0  0  0  0  0  0  0  0  0
   -6.1377   -0.8610  -17.6919 N   0  0  0  0  0  0  0  0  0  0  0  0
   -5.1223   -0.0813  -17.9715 C   0  0  0  0  0  0  0  0  0  0  0  0
   -4.8016    0.3596  -19.2921 C   0  0  0  0  0  0  0  0  0  0  0  0
   -3.7595    1.2812  -19.5717 C   0  0  0  0  0  0  0  0  0  0  0  0
   -3.5087    1.6740  -20.8582 C   0  0  0  0  0  0  0  0  0  0  0  0
   -4.2592    1.1511  -21.9332 C   0  0  0  0  0  0  0  0  0  0  0  0
   -5.2652    0.2534  -21.6937 C   0  0  0  0  0  0  0  0  0  0  0  0
   -5.5731   -0.1374  -20.3642 C   0  0  0  0  0  0  0  0  0  0  0  0
   -7.0511   -2.8187  -21.7058 C   0  0  0  0  0  0  0  0  0  0  0  0
   -6.3028   -3.5859  -21.2250 O   0  0  0  0  0  0  0  0  0  0  0  0
   -9.2458   -2.1027  -22.5156 N   0  0  0  0  0  0  0  0  0  0  0  0
  -10.1524   -1.4660  -23.6104 C   0  0  0  0  0  0  0  0  0  0  0  0
  -11.5113   -4.5750  -24.1758 H   0  0  0  0  0  0  0  0  0  0  0  0
  -11.2712   -3.7848  -22.6463 H   0  0  0  0  0  0  0  0  0  0  0  0
  -12.5541   -3.2342  -23.6773 H   0  0  0  0  0  0  0  0  0  0  0  0
  -11.3030   -2.1622  -25.2441 H   0  0  0  0  0  0  0  0  0  0  0  0
   -9.7006   -4.2024  -25.5588 H   0  0  0  0  0  0  0  0  0  0  0  0
   -9.0557   -2.6007  -25.9033 H   0  0  0  0  0  0  0  0  0  0  0  0
   -7.4984   -2.7747  -24.0197 H   0  0  0  0  0  0  0  0  0  0  0  0
   -8.2624   -4.2538  -23.4340 H   0  0  0  0  0  0  0  0  0  0  0  0
   -7.7329   -1.9514  -18.4794 H   0  0  0  0  0  0  0  0  0  0  0  0
   -4.5058    0.2617  -17.1359 H   0  0  0  0  0  0  0  0  0  0  0  0
   -3.1738    1.6684  -18.7451 H   0  0  0  0  0  0  0  0  0  0  0  0
   -2.7244    2.3952  -21.0665 H   0  0  0  0  0  0  0  0  0  0  0  0
   -4.0460    1.4667  -22.9498 H   0  0  0  0  0  0  0  0  0  0  0  0
   -5.8450   -0.1743  -22.5068 H   0  0  0  0  0  0  0  0  0  0  0  0
  -10.9283   -0.9051  -23.0956 H   0  0  0  0  0  0  0  0  0  0  0  0
   -9.6064   -0.8520  -24.3106 H   0  0  0  0  0  0  0  0  0  0  0  0
  1  2  1  0
  2  3  1  0
  3  4  1  0
  4  5  1  0
  5  6  2  0
  6  7  1  0
  6  8  1  0
  8  9  1  0
  9 10  2  0
 10 11  1  0
 11 12  2  0
 12 13  1  0
 13 14  2  0
 14 15  1  0
 15 16  2  0
 16 17  1  0
 17 18  2  0
  8 19  1  0
 19 20  2  0
 19 21  1  0
 21 22  1  0
 22  2  1  0
 21  5  1  0
 18  9  1  0
 18 13  1  0
  1 23  1  0
  1 24  1  0
  1 25  1  0
  2 26  1  6
  3 27  1  0
  3 28  1  0
  4 29  1  0
  4 30  1  0
 10 31  1  0
 12 32  1  0
 14 33  1  0
 15 34  1  0
 16 35  1  0
 17 36  1  0
 22 37  1  0
 22 38  1  0
M  CHG  1   7  -1
M  END
