
     RDKit          3D

 38 41  0  0  0  0  0  0  0  0999 V2000
  -11.7829   -3.4474  -23.5175 C   0  0  0  0  0  0  0  0  0  0  0  0
  -10.9598   -2.4508  -24.3129 C   0  0  2  0  0  0  0  0  0  0  0  0
   -9.6862   -3.0867  -24.9072 C   0  0  0  0  0  0  0  0  0  0  0  0
   -8.6796   -3.0908  -23.7663 C   0  0  0  0  0  0  0  0  0  0  0  0
   -9.5891   -1.8303  -22.3702 C   0  0  0  0  0  0  0  0  0  0  0  0
   -9.0498   -0.7450  -21.5167 C   0  0  0  0  0  0  0  0  0  0  0  0
   -9.4697    0.3210  -21.1437 O   0  0  0  0  0  0  0  0  0  0  0  0
   -7.8371   -1.1913  -20.9263 N   0  0  0  0  0  0  0  0  0  0  0  0
   -7.0876   -0.5267  -19.9036 C   0  0  0  0  0  0  0  0  0  0  0  0
   -7.3533   -0.7602  -18.5835 C   0  0  0  0  0  0  0  0  0  0  0  0
   -6.6426   -0.2314  -17.5493 N   0  0  0  0  0  0  0  0  0  0  0  0
   -5.6488    0.5703  -17.8436 C   0  0  0  0  0  0  0  0  0  0  0  0
   -5.3116    0.9584  -19.1767 C   0  0  0  0  0  0  0  0  0  0  0  0
   -4.2961    1.9028  -19.4774 C   0  0  0  0  0  0  0  0  0  0  0  0
   -4.0279    2.2419  -20.7756 C   0  0  0  0  0  0  0  0  0  0  0  0
   -4.7330    1.6408  -21.8404 C   0  0  0  0  0  0  0  0  0  0  0  0
   -5.7123    0.7197  -21.5801 C   0  0  0  0  0  0  0  0  0  0  0  0
   -6.0386    0.3825  -20.2403 C   0  0  0  0  0  0  0  0  0  0  0  0
   -7.3880   -2.4124  -21.4820 C   0  0  0  0  0  0  0  0  0  0  0  0
   -6.6251   -3.1277  -20.9472 O   0  0  0  0  0  0  0  0  0  0  0  0
   -9.5860   -1.8166  -22.3756 N   0  0  0  0  0  0  0  0  0  0  0  0
  -10.4875   -1.2669  -23.5207 C   0  0  0  0  0  0  0  0  0  0  0  0
  -11.7217   -4.4469  -23.9636 H   0  0  0  0  0  0  0  0  0  0  0  0
  -11.5471   -3.5756  -22.4696 H   0  0  0  0  0  0  0  0  0  0  0  0
  -12.8230   -3.1225  -23.5553 H   0  0  0  0  0  0  0  0  0  0  0  0
  -11.5725   -2.0824  -25.1440 H   0  0  0  0  0  0  0  0  0  0  0  0
   -9.8919   -4.0758  -25.3217 H   0  0  0  0  0  0  0  0  0  0  0  0
   -9.2957   -2.4701  -25.7296 H   0  0  0  0  0  0  0  0  0  0  0  0
   -7.7798   -2.4963  -23.8048 H   0  0  0  0  0  0  0  0  0  0  0  0
   -8.5053   -3.9723  -23.1648 H   0  0  0  0  0  0  0  0  0  0  0  0
   -8.1787   -1.4159  -18.3184 H   0  0  0  0  0  0  0  0  0  0  0  0
   -5.0654    0.9754  -17.0121 H   0  0  0  0  0  0  0  0  0  0  0  0
   -3.7448    2.3504  -18.6577 H   0  0  0  0  0  0  0  0  0  0  0  0
   -3.2646    2.9803  -21.0011 H   0  0  0  0  0  0  0  0  0  0  0  0
   -4.5062    1.9146  -22.8662 H   0  0  0  0  0  0  0  0  0  0  0  0
   -6.2566    0.2325  -22.3842 H   0  0  0  0  0  0  0  0  0  0  0  0
  -11.2950   -0.7104  -23.0518 H   0  0  0  0  0  0  0  0  0  0  0  0
   -9.9465   -0.6679  -24.2376 H   0  0  0  0  0  0  0  0  0  0  0  0
  1  2  1  0
  2  3  1  0
  3  4  1  0
  4  5  1  0
  5  6  2  0
  6  7  1  0
  6  8  1  0
  8  9  1  0
  9 10  2  0
 10 11  1  0
 11 12  2  0
 12 13  1  0
 13 14  2  0
 14 15  1  0
 15 16  2  0
 16 17  1  0
 17 18  2  0
  8 19  1  0
 19 20  2  0
 19 21  1  0
 21 22  1  0
 22  2  1  0
 21  5  1  0
 18  9  1  0
 18 13  1  0
  1 23  1  0
  1 24  1  0
  1 25  1  0
  2 26  1  6
  3 27  1  0
  3 28  1  0
  4 29  1  0
  4 30  1  0
 10 31  1  0
 12 32  1  0
 14 33  1  0
 15 34  1  0
 16 35  1  0
 17 36  1  0
 22 37  1  0
 22 38  1  0
M  CHG  1   7  -1
M  END
$$$$
