
     RDKit          3D

 56 60  0  0  0  0  0  0  0  0999 V2000
   14.4524    2.3909   21.9653 C   0  0  0  0  0  0  0  0  0  0  0  0
   12.9994    2.4117   21.8801 N   0  0  0  0  0  0  0  0  0  0  0  0
   12.3868    3.5723   21.5329 C   0  0  0  0  0  0  0  0  0  0  0  0
   13.0033    4.6239   21.4120 O   0  0  0  0  0  0  0  0  0  0  0  0
   10.8899    3.5343   21.2204 C   0  0  0  0  0  0  0  0  0  0  0  0
   10.0393    2.7797   22.1314 N   0  0  0  0  0  0  0  0  0  0  0  0
    9.9841    1.3150   22.2320 C   0  0  0  0  0  0  0  0  0  0  0  0
    8.5307    0.7898   22.3734 C   0  0  1  0  0  0  0  0  0  0  0  0
    7.7219    0.9877   21.0725 C   0  0  0  0  0  0  0  0  0  0  0  0
    7.7451    1.9421   20.3323 O   0  0  0  0  0  0  0  0  0  0  0  0
    6.9358   -0.1278   20.8639 N   0  0  0  0  0  0  0  0  0  0  0  0
    5.9154   -0.0987   19.8812 C   0  0  0  0  0  0  0  0  0  0  0  0
    6.0827   -0.7458   18.6856 C   0  0  0  0  0  0  0  0  0  0  0  0
    5.2548   -0.6167   17.6196 N   0  0  0  0  0  0  0  0  0  0  0  0
    4.2045    0.1599   17.7582 C   0  0  0  0  0  0  0  0  0  0  0  0
    3.8747    0.8350   18.9677 C   0  0  0  0  0  0  0  0  0  0  0  0
    2.7200    1.6540   19.0780 C   0  0  0  0  0  0  0  0  0  0  0  0
    2.3802    2.2151   20.2768 C   0  0  0  0  0  0  0  0  0  0  0  0
    3.1849    1.9934   21.4182 C   0  0  0  0  0  0  0  0  0  0  0  0
    4.3354    1.2489   21.3297 C   0  0  0  0  0  0  0  0  0  0  0  0
    4.7232    0.6687   20.0858 C   0  0  0  0  0  0  0  0  0  0  0  0
    7.2176   -1.2402   21.7462 C   0  0  0  0  0  0  0  0  0  0  0  0
    8.4528   -0.7654   22.5519 C   0  0  1  0  0  0  0  0  0  0  0  0
    9.6957   -1.4955   22.0257 N   0  0  0  0  0  0  0  0  0  0  0  0
    7.9038    1.5636   23.5379 C   0  0  0  0  0  0  0  0  0  0  0  0
    6.8533    1.0417   24.3070 C   0  0  0  0  0  0  0  0  0  0  0  0
    6.3418    1.7672   25.3749 C   0  0  0  0  0  0  0  0  0  0  0  0
    5.0686    1.0840   26.3481 Cl  0  0  0  0  0  0  0  0  0  0  0  0
    6.8357    3.0234   25.7189 C   0  0  0  0  0  0  0  0  0  0  0  0
    7.8351    3.5616   24.9397 C   0  0  0  0  0  0  0  0  0  0  0  0
    8.3558    2.8481   23.8657 C   0  0  0  0  0  0  0  0  0  0  0  0
    9.4313    3.5323   23.0969 C   0  0  0  0  0  0  0  0  0  0  0  0
    9.7314    4.6992   23.3130 O   0  0  0  0  0  0  0  0  0  0  0  0
   14.7978    1.3552   21.9298 H   0  0  0  0  0  0  0  0  0  0  0  0
   14.8937    2.9537   21.1390 H   0  0  0  0  0  0  0  0  0  0  0  0
   14.8323    2.9073   22.8377 H   0  0  0  0  0  0  0  0  0  0  0  0
   12.4523    1.6087   22.1324 H   0  0  0  0  0  0  0  0  0  0  0  0
   10.6843    3.2220   20.1913 H   0  0  0  0  0  0  0  0  0  0  0  0
   10.6053    4.5878   21.2845 H   0  0  0  0  0  0  0  0  0  0  0  0
   10.5210    1.0090   23.1439 H   0  0  0  0  0  0  0  0  0  0  0  0
   10.4624    0.8527   21.3781 H   0  0  0  0  0  0  0  0  0  0  0  0
    6.9432   -1.3961   18.5320 H   0  0  0  0  0  0  0  0  0  0  0  0
    3.5353    0.2645   16.9006 H   0  0  0  0  0  0  0  0  0  0  0  0
    2.1141    1.8223   18.1918 H   0  0  0  0  0  0  0  0  0  0  0  0
    1.4873    2.8298   20.3643 H   0  0  0  0  0  0  0  0  0  0  0  0
    2.8924    2.4262   22.3700 H   0  0  0  0  0  0  0  0  0  0  0  0
    4.9565    1.1030   22.2131 H   0  0  0  0  0  0  0  0  0  0  0  0
    7.4584   -2.1511   21.1887 H   0  0  0  0  0  0  0  0  0  0  0  0
    6.3597   -1.4720   22.3898 H   0  0  0  0  0  0  0  0  0  0  0  0
    8.3743   -1.0116   23.6102 H   0  0  0  0  0  0  0  0  0  0  0  0
    9.6729   -2.4896   22.3175 H   0  0  0  0  0  0  0  0  0  0  0  0
    9.7329   -1.4516   20.9870 H   0  0  0  0  0  0  0  0  0  0  0  0
   10.5502   -1.0735   22.4137 H   0  0  0  0  0  0  0  0  0  0  0  0
    6.4076    0.0775   24.0861 H   0  0  0  0  0  0  0  0  0  0  0  0
    6.4226    3.5816   26.5510 H   0  0  0  0  0  0  0  0  0  0  0  0
    8.2482    4.5478   25.1294 H   0  0  0  0  0  0  0  0  0  0  0  0
  1  2  1  0
  2  3  1  0
  3  4  2  0
  3  5  1  0
  5  6  1  0
  6  7  1  0
  8  7  1  1
  8  9  1  0
  9 10  2  0
  9 11  1  0
 11 12  1  0
 12 13  2  0
 13 14  1  0
 14 15  2  0
 15 16  1  0
 16 17  2  0
 17 18  1  0
 18 19  2  0
 19 20  1  0
 20 21  2  0
 11 22  1  0
 22 23  1  0
 23 24  1  0
  8 25  1  0
 25 26  2  0
 26 27  1  0
 27 28  1  0
 27 29  2  0
 29 30  1  0
 30 31  2  0
 31 32  1  0
 32 33  2  0
 32  6  1  0
 23  8  1  0
 31 25  1  0
 21 12  1  0
 21 16  1  0
  1 34  1  0
  1 35  1  0
  1 36  1  0
  2 37  1  0
  5 38  1  0
  5 39  1  0
  7 40  1  0
  7 41  1  0
 13 42  1  0
 15 43  1  0
 17 44  1  0
 18 45  1  0
 19 46  1  0
 20 47  1  0
 22 48  1  0
 22 49  1  0
 23 50  1  6
 24 51  1  0
 24 52  1  0
 24 53  1  0
 26 54  1  0
 29 55  1  0
 30 56  1  0
M  CHG  1  24   1
M  END
$$$$
