
     RDKit          3D

 56 60  0  0  0  0  0  0  0  0999 V2000
   -7.0054    3.6334  -22.4922 C   0  0  0  0  0  0  0  0  0  0  0  0
   -7.7933    2.6995  -23.2704 N   0  0  0  0  0  0  0  0  0  0  0  0
   -7.5113    2.5269  -24.5789 C   0  0  0  0  0  0  0  0  0  0  0  0
   -6.7403    3.2372  -25.2106 O   0  0  0  0  0  0  0  0  0  0  0  0
   -8.1544    1.3501  -25.3174 C   0  0  0  0  0  0  0  0  0  0  0  0
   -8.9878    0.4561  -24.5549 N   0  0  0  0  0  0  0  0  0  0  0  0
   -8.5136   -0.8903  -24.2703 C   0  0  0  0  0  0  0  0  0  0  0  0
   -9.0739   -1.4231  -22.9309 C   0  0  2  0  0  0  0  0  0  0  0  0
   -8.4780   -0.5719  -21.7827 C   0  0  0  0  0  0  0  0  0  0  0  0
   -8.7902    0.5688  -21.5005 O   0  0  0  0  0  0  0  0  0  0  0  0
   -7.5045   -1.3033  -21.1434 N   0  0  0  0  0  0  0  0  0  0  0  0
   -6.6608   -0.7881  -20.1216 C   0  0  0  0  0  0  0  0  0  0  0  0
   -6.8883   -1.1414  -18.8148 C   0  0  0  0  0  0  0  0  0  0  0  0
   -6.1269   -0.7451  -17.7662 N   0  0  0  0  0  0  0  0  0  0  0  0
   -5.1035    0.0375  -18.0062 C   0  0  0  0  0  0  0  0  0  0  0  0
   -4.7594    0.4915  -19.3132 C   0  0  0  0  0  0  0  0  0  0  0  0
   -3.6656    1.3697  -19.5328 C   0  0  0  0  0  0  0  0  0  0  0  0
   -3.3227    1.7620  -20.7971 C   0  0  0  0  0  0  0  0  0  0  0  0
   -4.0591    1.2865  -21.9024 C   0  0  0  0  0  0  0  0  0  0  0  0
   -5.1432    0.4604  -21.7184 C   0  0  0  0  0  0  0  0  0  0  0  0
   -5.5330    0.0474  -20.4119 C   0  0  0  0  0  0  0  0  0  0  0  0
   -7.2233   -2.5626  -21.8036 C   0  0  0  0  0  0  0  0  0  0  0  0
   -8.5303   -2.8307  -22.5594 C   0  0  2  0  0  0  0  0  0  0  0  0
   -8.4200   -3.8203  -23.7126 C   0  0  0  0  0  0  0  0  0  0  0  0
  -10.5859   -1.2939  -23.0366 C   0  0  0  0  0  0  0  0  0  0  0  0
  -11.4867   -2.2294  -22.5210 C   0  0  0  0  0  0  0  0  0  0  0  0
  -12.8469   -1.9614  -22.4614 C   0  0  0  0  0  0  0  0  0  0  0  0
  -13.3658   -0.7862  -23.0074 C   0  0  0  0  0  0  0  0  0  0  0  0
  -12.5018    0.1212  -23.5926 C   0  0  0  0  0  0  0  0  0  0  0  0
  -11.1324   -0.1415  -23.6197 C   0  0  0  0  0  0  0  0  0  0  0  0
  -10.2551    0.8807  -24.2649 C   0  0  0  0  0  0  0  0  0  0  0  0
  -10.6386    2.0184  -24.4909 O   0  0  0  0  0  0  0  0  0  0  0  0
   -7.3044    4.6737  -22.6496 H   0  0  0  0  0  0  0  0  0  0  0  0
   -7.1391    3.3837  -21.4379 H   0  0  0  0  0  0  0  0  0  0  0  0
   -5.9437    3.5489  -22.7472 H   0  0  0  0  0  0  0  0  0  0  0  0
   -8.3711    2.0315  -22.7656 H   0  0  0  0  0  0  0  0  0  0  0  0
   -8.7326    1.7703  -26.1450 H   0  0  0  0  0  0  0  0  0  0  0  0
   -7.3337    0.7713  -25.7577 H   0  0  0  0  0  0  0  0  0  0  0  0
   -8.8113   -1.5755  -25.0746 H   0  0  0  0  0  0  0  0  0  0  0  0
   -7.4198   -0.8656  -24.2222 H   0  0  0  0  0  0  0  0  0  0  0  0
   -7.7565   -1.7458  -18.5582 H   0  0  0  0  0  0  0  0  0  0  0  0
   -4.5245    0.3872  -17.1480 H   0  0  0  0  0  0  0  0  0  0  0  0
   -3.1258    1.7379  -18.6684 H   0  0  0  0  0  0  0  0  0  0  0  0
   -2.4981    2.4532  -20.9566 H   0  0  0  0  0  0  0  0  0  0  0  0
   -3.7852    1.6033  -22.9053 H   0  0  0  0  0  0  0  0  0  0  0  0
   -5.7098    0.1148  -22.5771 H   0  0  0  0  0  0  0  0  0  0  0  0
   -6.3686   -2.4787  -22.4935 H   0  0  0  0  0  0  0  0  0  0  0  0
   -6.9676   -3.3330  -21.0717 H   0  0  0  0  0  0  0  0  0  0  0  0
   -9.2266   -3.2123  -21.8069 H   0  0  0  0  0  0  0  0  0  0  0  0
   -8.1336   -4.8167  -23.3650 H   0  0  0  0  0  0  0  0  0  0  0  0
   -7.6595   -3.5022  -24.4353 H   0  0  0  0  0  0  0  0  0  0  0  0
   -9.3725   -3.9117  -24.2481 H   0  0  0  0  0  0  0  0  0  0  0  0
  -11.1249   -3.1557  -22.0886 H   0  0  0  0  0  0  0  0  0  0  0  0
  -13.5033   -2.6548  -21.9408 H   0  0  0  0  0  0  0  0  0  0  0  0
  -14.4295   -0.5690  -22.9311 H   0  0  0  0  0  0  0  0  0  0  0  0
  -12.8477    1.0614  -24.0097 H   0  0  0  0  0  0  0  0  0  0  0  0
  1  2  1  0
  2  3  1  0
  3  4  2  0
  3  5  1  0
  5  6  1  0
  6  7  1  0
  8  7  1  6
  8  9  1  0
  9 10  2  0
  9 11  1  0
 11 12  1  0
 12 13  2  0
 13 14  1  0
 14 15  2  0
 15 16  1  0
 16 17  2  0
 17 18  1  0
 18 19  2  0
 19 20  1  0
 20 21  2  0
 11 22  1  0
 22 23  1  0
 23 24  1  0
  8 25  1  0
 25 26  2  0
 26 27  1  0
 27 28  2  0
 28 29  1  0
 29 30  2  0
 30 31  1  0
 31 32  2  0
 31  6  1  0
 23  8  1  0
 30 25  1  0
 21 12  1  0
 21 16  1  0
  1 33  1  0
  1 34  1  0
  1 35  1  0
  2 36  1  0
  5 37  1  0
  5 38  1  0
  7 39  1  0
  7 40  1  0
 13 41  1  0
 15 42  1  0
 17 43  1  0
 18 44  1  0
 19 45  1  0
 20 46  1  0
 22 47  1  0
 22 48  1  0
 23 49  1  1
 24 50  1  0
 24 51  1  0
 24 52  1  0
 26 53  1  0
 27 54  1  0
 28 55  1  0
 29 56  1  0
M  END
