
     RDKit          3D

 56 60  0  0  0  0  0  0  0  0999 V2000
    7.2760    4.6551   22.3863 C   0  0  0  0  0  0  0  0  0  0  0  0
    8.1066    3.7561   23.1613 N   0  0  0  0  0  0  0  0  0  0  0  0
    7.8581    3.5971   24.4783 C   0  0  0  0  0  0  0  0  0  0  0  0
    7.0814    4.2959   25.1158 O   0  0  0  0  0  0  0  0  0  0  0  0
    8.5498    2.4507   25.2206 C   0  0  0  0  0  0  0  0  0  0  0  0
    9.3912    1.5678   24.4539 N   0  0  0  0  0  0  0  0  0  0  0  0
    8.9489    0.2044   24.2009 C   0  0  0  0  0  0  0  0  0  0  0  0
    9.4946   -0.3344   22.8579 C   0  0  2  0  0  0  0  0  0  0  0  0
    8.8502    0.4812   21.7101 C   0  0  0  0  0  0  0  0  0  0  0  0
    9.1241    1.6254   21.4032 O   0  0  0  0  0  0  0  0  0  0  0  0
    7.8839   -0.2871   21.1041 N   0  0  0  0  0  0  0  0  0  0  0  0
    7.0040    0.1878   20.0933 C   0  0  0  0  0  0  0  0  0  0  0  0
    7.2129   -0.1802   18.7875 C   0  0  0  0  0  0  0  0  0  0  0  0
    6.4180    0.1778   17.7500 N   0  0  0  0  0  0  0  0  0  0  0  0
    5.3785    0.9355   18.0004 C   0  0  0  0  0  0  0  0  0  0  0  0
    5.0504    1.4010   19.3075 C   0  0  0  0  0  0  0  0  0  0  0  0
    3.9374    2.2520   19.5375 C   0  0  0  0  0  0  0  0  0  0  0  0
    3.6112    2.6552   20.8029 C   0  0  0  0  0  0  0  0  0  0  0  0
    4.3846    2.2182   21.8988 C   0  0  0  0  0  0  0  0  0  0  0  0
    5.4871    1.4196   21.7037 C   0  0  0  0  0  0  0  0  0  0  0  0
    5.8598    0.9964   20.3955 C   0  0  0  0  0  0  0  0  0  0  0  0
    7.6526   -1.5428   21.7899 C   0  0  0  0  0  0  0  0  0  0  0  0
    8.9827   -1.7623   22.5206 C   0  0  2  0  0  0  0  0  0  0  0  0
    8.9253   -2.7358   23.6913 C   0  0  0  0  0  0  0  0  0  0  0  0
   11.0043   -0.1617   22.9280 C   0  0  0  0  0  0  0  0  0  0  0  0
   11.9196   -1.0801   22.4072 C   0  0  0  0  0  0  0  0  0  0  0  0
   13.2701   -0.7755   22.3132 C   0  0  0  0  0  0  0  0  0  0  0  0
   13.7676    0.4223   22.8291 C   0  0  0  0  0  0  0  0  0  0  0  0
   12.8914    1.3148   23.4191 C   0  0  0  0  0  0  0  0  0  0  0  0
   11.5308    1.0148   23.4807 C   0  0  0  0  0  0  0  0  0  0  0  0
   10.6395    2.0226   24.1292 C   0  0  0  0  0  0  0  0  0  0  0  0
   10.9957    3.1740   24.3288 O   0  0  0  0  0  0  0  0  0  0  0  0
    7.5491    5.7057   22.5207 H   0  0  0  0  0  0  0  0  0  0  0  0
    7.3937    4.3921   21.3333 H   0  0  0  0  0  0  0  0  0  0  0  0
    6.2229    4.5454   22.6661 H   0  0  0  0  0  0  0  0  0  0  0  0
    8.6917    3.0963   22.6543 H   0  0  0  0  0  0  0  0  0  0  0  0
    9.1339    2.9001   26.0285 H   0  0  0  0  0  0  0  0  0  0  0  0
    7.7555    1.8566   25.6880 H   0  0  0  0  0  0  0  0  0  0  0  0
    9.2831   -0.4592   25.0090 H   0  0  0  0  0  0  0  0  0  0  0  0
    7.8540    0.1980   24.1768 H   0  0  0  0  0  0  0  0  0  0  0  0
    8.0919   -0.7644   18.5211 H   0  0  0  0  0  0  0  0  0  0  0  0
    4.7714    1.2551   17.1499 H   0  0  0  0  0  0  0  0  0  0  0  0
    3.3688    2.5910   18.6797 H   0  0  0  0  0  0  0  0  0  0  0  0
    2.7712    3.3258   20.9698 H   0  0  0  0  0  0  0  0  0  0  0  0
    4.1238    2.5436   22.9025 H   0  0  0  0  0  0  0  0  0  0  0  0
    6.0818    1.1038   22.5549 H   0  0  0  0  0  0  0  0  0  0  0  0
    6.8111   -1.4715   22.4973 H   0  0  0  0  0  0  0  0  0  0  0  0
    7.4027   -2.3318   21.0760 H   0  0  0  0  0  0  0  0  0  0  0  0
    9.6729   -2.1367   21.7589 H   0  0  0  0  0  0  0  0  0  0  0  0
    8.6595   -3.7452   23.3658 H   0  0  0  0  0  0  0  0  0  0  0  0
    8.1721   -2.4271   24.4257 H   0  0  0  0  0  0  0  0  0  0  0  0
    9.8915   -2.7920   24.2069 H   0  0  0  0  0  0  0  0  0  0  0  0
   11.5745   -2.0230   21.9974 H   0  0  0  0  0  0  0  0  0  0  0  0
   13.9342   -1.4589   21.7890 H   0  0  0  0  0  0  0  0  0  0  0  0
   14.8229    0.6676   22.7258 H   0  0  0  0  0  0  0  0  0  0  0  0
   13.2198    2.2709   23.8137 H   0  0  0  0  0  0  0  0  0  0  0  0
  1  2  1  0
  2  3  1  0
  3  4  2  0
  3  5  1  0
  5  6  1  0
  6  7  1  0
  8  7  1  1
  8  9  1  0
  9 10  2  0
  9 11  1  0
 11 12  1  0
 12 13  2  0
 13 14  1  0
 14 15  2  0
 15 16  1  0
 16 17  2  0
 17 18  1  0
 18 19  2  0
 19 20  1  0
 20 21  2  0
 11 22  1  0
 22 23  1  0
 23 24  1  0
  8 25  1  0
 25 26  2  0
 26 27  1  0
 27 28  2  0
 28 29  1  0
 29 30  2  0
 30 31  1  0
 31 32  2  0
 31  6  1  0
 23  8  1  0
 30 25  1  0
 21 12  1  0
 21 16  1  0
  1 33  1  0
  1 34  1  0
  1 35  1  0
  2 36  1  0
  5 37  1  0
  5 38  1  0
  7 39  1  0
  7 40  1  0
 13 41  1  0
 15 42  1  0
 17 43  1  0
 18 44  1  0
 19 45  1  0
 20 46  1  0
 22 47  1  0
 22 48  1  0
 23 49  1  6
 24 50  1  0
 24 51  1  0
 24 52  1  0
 26 53  1  0
 27 54  1  0
 28 55  1  0
 29 56  1  0
M  END
$$$$
