
     RDKit          3D

 66 70  0  0  0  0  0  0  0  0999 V2000
   -7.0182    3.6292  -22.4843 C   0  0  0  0  0  0  0  0  0  0  0  0
   -7.7812    2.6802  -23.2650 N   0  0  0  0  0  0  0  0  0  0  0  0
   -7.4963    2.5210  -24.5749 C   0  0  0  0  0  0  0  0  0  0  0  0
   -6.7297    3.2469  -25.1907 O   0  0  0  0  0  0  0  0  0  0  0  0
   -8.1597    1.3614  -25.3254 C   0  0  0  0  0  0  0  0  0  0  0  0
   -8.9874    0.4652  -24.5602 N   0  0  0  0  0  0  0  0  0  0  0  0
   -8.5117   -0.8778  -24.2780 C   0  0  0  0  0  0  0  0  0  0  0  0
   -9.0686   -1.4083  -22.9338 C   0  0  2  0  0  0  0  0  0  0  0  0
   -8.4689   -0.5654  -21.7806 C   0  0  0  0  0  0  0  0  0  0  0  0
   -8.7604    0.5848  -21.5039 O   0  0  0  0  0  0  0  0  0  0  0  0
   -7.5081   -1.3054  -21.1359 N   0  0  0  0  0  0  0  0  0  0  0  0
   -6.6588   -0.7866  -20.1171 C   0  0  0  0  0  0  0  0  0  0  0  0
   -6.8854   -1.1449  -18.8113 C   0  0  0  0  0  0  0  0  0  0  0  0
   -6.1178   -0.7586  -17.7623 N   0  0  0  0  0  0  0  0  0  0  0  0
   -5.0912    0.0173  -18.0102 C   0  0  0  0  0  0  0  0  0  0  0  0
   -4.7454    0.4765  -19.3136 C   0  0  0  0  0  0  0  0  0  0  0  0
   -3.6602    1.3667  -19.5277 C   0  0  0  0  0  0  0  0  0  0  0  0
   -3.3275    1.7610  -20.7921 C   0  0  0  0  0  0  0  0  0  0  0  0
   -4.0579    1.2859  -21.9033 C   0  0  0  0  0  0  0  0  0  0  0  0
   -5.1392    0.4585  -21.7209 C   0  0  0  0  0  0  0  0  0  0  0  0
   -5.5288    0.0468  -20.4138 C   0  0  0  0  0  0  0  0  0  0  0  0
   -7.2305   -2.5623  -21.8041 C   0  0  0  0  0  0  0  0  0  0  0  0
   -8.5320   -2.8179  -22.5665 C   0  0  2  0  0  0  0  0  0  0  0  0
   -8.3767   -3.8152  -23.7091 C   0  0  0  0  0  0  0  0  0  0  0  0
   -9.6132   -4.0110  -24.3685 O   0  0  0  0  0  0  0  0  0  0  0  0
  -10.1929   -5.3045  -24.2110 C   0  0  0  0  0  0  0  0  0  0  0  0
   -9.5447   -6.2978  -25.1744 C   0  0  0  0  0  0  0  0  0  0  0  0
  -11.6790   -5.1456  -24.4704 C   0  0  0  0  0  0  0  0  0  0  0  0
  -10.5746   -1.2885  -23.0308 C   0  0  0  0  0  0  0  0  0  0  0  0
  -11.4650   -2.2477  -22.5401 C   0  0  0  0  0  0  0  0  0  0  0  0
  -12.8164   -1.9650  -22.5138 C   0  0  0  0  0  0  0  0  0  0  0  0
  -13.6496   -2.8683  -21.9618 F   0  0  0  0  0  0  0  0  0  0  0  0
  -13.3647   -0.7910  -23.0136 C   0  0  0  0  0  0  0  0  0  0  0  0
  -12.4968    0.1185  -23.5822 C   0  0  0  0  0  0  0  0  0  0  0  0
  -11.1280   -0.1391  -23.6139 C   0  0  0  0  0  0  0  0  0  0  0  0
  -10.2540    0.8823  -24.2605 C   0  0  0  0  0  0  0  0  0  0  0  0
  -10.6392    2.0214  -24.4870 O   0  0  0  0  0  0  0  0  0  0  0  0
   -5.9589    3.5515  -22.7453 H   0  0  0  0  0  0  0  0  0  0  0  0
   -7.1435    3.3847  -21.4247 H   0  0  0  0  0  0  0  0  0  0  0  0
   -7.3205    4.6695  -22.6504 H   0  0  0  0  0  0  0  0  0  0  0  0
   -8.3301    1.9973  -22.7484 H   0  0  0  0  0  0  0  0  0  0  0  0
   -8.7402    1.7958  -26.1437 H   0  0  0  0  0  0  0  0  0  0  0  0
   -7.3472    0.7891  -25.7811 H   0  0  0  0  0  0  0  0  0  0  0  0
   -7.4177   -0.8555  -24.2380 H   0  0  0  0  0  0  0  0  0  0  0  0
   -8.8143   -1.5664  -25.0766 H   0  0  0  0  0  0  0  0  0  0  0  0
   -7.7443   -1.7682  -18.5635 H   0  0  0  0  0  0  0  0  0  0  0  0
   -4.4882    0.3496  -17.1634 H   0  0  0  0  0  0  0  0  0  0  0  0
   -3.1076    1.7263  -18.6636 H   0  0  0  0  0  0  0  0  0  0  0  0
   -2.5019    2.4462  -20.9541 H   0  0  0  0  0  0  0  0  0  0  0  0
   -3.7862    1.6077  -22.9058 H   0  0  0  0  0  0  0  0  0  0  0  0
   -5.7055    0.1209  -22.5845 H   0  0  0  0  0  0  0  0  0  0  0  0
   -6.3679   -2.4790  -22.4888 H   0  0  0  0  0  0  0  0  0  0  0  0
   -6.9986   -3.3299  -21.0620 H   0  0  0  0  0  0  0  0  0  0  0  0
   -9.2367   -3.2207  -21.8338 H   0  0  0  0  0  0  0  0  0  0  0  0
   -7.6663   -3.4220  -24.4485 H   0  0  0  0  0  0  0  0  0  0  0  0
   -7.9625   -4.7673  -23.3347 H   0  0  0  0  0  0  0  0  0  0  0  0
  -10.0390   -5.6482  -23.1739 H   0  0  0  0  0  0  0  0  0  0  0  0
   -8.4744   -6.4103  -24.9664 H   0  0  0  0  0  0  0  0  0  0  0  0
  -10.0163   -7.2856  -25.0977 H   0  0  0  0  0  0  0  0  0  0  0  0
   -9.6573   -5.9374  -26.2036 H   0  0  0  0  0  0  0  0  0  0  0  0
  -12.2056   -6.0955  -24.3524 H   0  0  0  0  0  0  0  0  0  0  0  0
  -12.1339   -4.4346  -23.7795 H   0  0  0  0  0  0  0  0  0  0  0  0
  -11.8304   -4.7769  -25.4888 H   0  0  0  0  0  0  0  0  0  0  0  0
  -11.1372   -3.2059  -22.1495 H   0  0  0  0  0  0  0  0  0  0  0  0
  -14.4347   -0.6229  -22.9426 H   0  0  0  0  0  0  0  0  0  0  0  0
  -12.8587    1.0519  -23.9974 H   0  0  0  0  0  0  0  0  0  0  0  0
  1  2  1  0
  2  3  1  0
  3  4  2  0
  3  5  1  0
  5  6  1  0
  6  7  1  0
  8  7  1  6
  8  9  1  0
  9 10  2  0
  9 11  1  0
 11 12  1  0
 12 13  2  0
 13 14  1  0
 14 15  2  0
 15 16  1  0
 16 17  2  0
 17 18  1  0
 18 19  2  0
 19 20  1  0
 20 21  2  0
 11 22  1  0
 22 23  1  0
 23 24  1  0
 24 25  1  0
 25 26  1  0
 26 27  1  0
 26 28  1  0
  8 29  1  0
 29 30  2  0
 30 31  1  0
 31 32  1  0
 31 33  2  0
 33 34  1  0
 34 35  2  0
 35 36  1  0
 36 37  2  0
 36  6  1  0
 23  8  1  0
 35 29  1  0
 21 12  1  0
 21 16  1  0
  1 38  1  0
  1 39  1  0
  1 40  1  0
  2 41  1  0
  5 42  1  0
  5 43  1  0
  7 44  1  0
  7 45  1  0
 13 46  1  0
 15 47  1  0
 17 48  1  0
 18 49  1  0
 19 50  1  0
 20 51  1  0
 22 52  1  0
 22 53  1  0
 23 54  1  1
 24 55  1  0
 24 56  1  0
 26 57  1  0
 27 58  1  0
 27 59  1  0
 27 60  1  0
 28 61  1  0
 28 62  1  0
 28 63  1  0
 30 64  1  0
 33 65  1  0
 34 66  1  0
M  END
