
     RDKit          3D

 61 66  0  0  0  0  0  0  0  0999 V2000
    7.9500   -3.3839   25.6467 C   0  0  0  0  0  0  0  0  0  0  0  0
    7.9193   -2.5622   24.5060 O   0  0  0  0  0  0  0  0  0  0  0  0
    8.9907   -2.8095   23.6159 C   0  0  0  0  0  0  0  0  0  0  0  0
    8.9908   -1.7584   22.5159 C   0  0  1  0  0  0  0  0  0  0  0  0
    7.6486   -1.5566   21.8081 C   0  0  0  0  0  0  0  0  0  0  0  0
    7.8750   -0.2942   21.1203 N   0  0  0  0  0  0  0  0  0  0  0  0
    6.9943    0.1765   20.1035 C   0  0  0  0  0  0  0  0  0  0  0  0
    7.1967   -0.2105   18.8001 C   0  0  0  0  0  0  0  0  0  0  0  0
    6.3846    0.1148   17.7627 N   0  0  0  0  0  0  0  0  0  0  0  0
    5.3439    0.8650   18.0271 C   0  0  0  0  0  0  0  0  0  0  0  0
    5.0254    1.3564   19.3229 C   0  0  0  0  0  0  0  0  0  0  0  0
    3.9281    2.2319   19.5304 C   0  0  0  0  0  0  0  0  0  0  0  0
    3.5968    2.6306   20.7918 C   0  0  0  0  0  0  0  0  0  0  0  0
    4.3401    2.1713   21.9037 C   0  0  0  0  0  0  0  0  0  0  0  0
    5.4629    1.4023   21.7217 C   0  0  0  0  0  0  0  0  0  0  0  0
    5.8455    0.9805   20.4150 C   0  0  0  0  0  0  0  0  0  0  0  0
    8.8191    0.4995   21.7467 C   0  0  0  0  0  0  0  0  0  0  0  0
    9.0413    1.6579   21.4673 O   0  0  0  0  0  0  0  0  0  0  0  0
    9.4834   -0.3329   22.8878 C   0  0  1  0  0  0  0  0  0  0  0  0
    8.9374    0.2019   24.2394 C   0  0  0  0  0  0  0  0  0  0  0  0
    9.3976    1.5610   24.4824 N   0  0  0  0  0  0  0  0  0  0  0  0
    8.5427    2.4513   25.2407 C   0  0  0  0  0  0  0  0  0  0  0  0
    7.6438    3.3058   24.3855 C   0  0  0  0  0  0  0  0  0  0  0  0
    6.3676    3.7166   24.6121 C   0  0  0  0  0  0  0  0  0  0  0  0
    6.0490    4.6062   23.6048 N   0  0  0  0  0  0  0  0  0  0  0  0
    7.0896    4.7152   22.7671 C   0  0  0  0  0  0  0  0  0  0  0  0
    8.0763    3.9302   23.2240 N   0  0  0  0  0  0  0  0  0  0  0  0
   10.6026    2.0327   24.0565 C   0  0  0  0  0  0  0  0  0  0  0  0
   10.9087    3.2199   24.1467 O   0  0  0  0  0  0  0  0  0  0  0  0
   11.5211    1.0152   23.4630 C   0  0  0  0  0  0  0  0  0  0  0  0
   12.8833    1.3033   23.4093 C   0  0  0  0  0  0  0  0  0  0  0  0
   13.7638    0.3839   22.8790 C   0  0  0  0  0  0  0  0  0  0  0  0
   13.2525   -0.8318   22.4265 C   0  0  0  0  0  0  0  0  0  0  0  0
   14.3285   -1.9831   21.6890 Cl  0  0  0  0  0  0  0  0  0  0  0  0
   11.9050   -1.1409   22.4910 C   0  0  0  0  0  0  0  0  0  0  0  0
   10.9954   -0.1799   22.9515 C   0  0  0  0  0  0  0  0  0  0  0  0
    7.0890   -3.1170   26.2613 H   0  0  0  0  0  0  0  0  0  0  0  0
    8.8629   -3.2265   26.2436 H   0  0  0  0  0  0  0  0  0  0  0  0
    7.8763   -4.4558   25.3987 H   0  0  0  0  0  0  0  0  0  0  0  0
    8.9045   -3.8212   23.1784 H   0  0  0  0  0  0  0  0  0  0  0  0
    9.9582   -2.7669   24.1480 H   0  0  0  0  0  0  0  0  0  0  0  0
    9.6665   -2.0999   21.7232 H   0  0  0  0  0  0  0  0  0  0  0  0
    7.4270   -2.3354   21.0707 H   0  0  0  0  0  0  0  0  0  0  0  0
    6.8098   -1.4926   22.5203 H   0  0  0  0  0  0  0  0  0  0  0  0
    8.0641   -0.8203   18.5476 H   0  0  0  0  0  0  0  0  0  0  0  0
    4.6826    1.1261   17.2021 H   0  0  0  0  0  0  0  0  0  0  0  0
    3.3588    2.5591   18.6631 H   0  0  0  0  0  0  0  0  0  0  0  0
    2.7564    3.2988   20.9445 H   0  0  0  0  0  0  0  0  0  0  0  0
    4.0100    2.4260   22.9059 H   0  0  0  0  0  0  0  0  0  0  0  0
    6.0688    1.1201   22.5796 H   0  0  0  0  0  0  0  0  0  0  0  0
    7.8440    0.2045   24.2326 H   0  0  0  0  0  0  0  0  0  0  0  0
    9.2623   -0.4546   25.0538 H   0  0  0  0  0  0  0  0  0  0  0  0
    7.9378    1.8447   25.9268 H   0  0  0  0  0  0  0  0  0  0  0  0
    9.1986    3.0874   25.8514 H   0  0  0  0  0  0  0  0  0  0  0  0
    5.6290    3.4379   25.3578 H   0  0  0  0  0  0  0  0  0  0  0  0
    5.1500    5.0604   23.5011 H   0  0  0  0  0  0  0  0  0  0  0  0
    7.1087    5.3173   21.8700 H   0  0  0  0  0  0  0  0  0  0  0  0
    8.9149    3.6729   22.6994 H   0  0  0  0  0  0  0  0  0  0  0  0
   13.2317    2.2660   23.7660 H   0  0  0  0  0  0  0  0  0  0  0  0
   14.8275    0.5854   22.8078 H   0  0  0  0  0  0  0  0  0  0  0  0
   11.6055   -2.1329   22.1675 H   0  0  0  0  0  0  0  0  0  0  0  0
  1  2  1  0
  2  3  1  0
  3  4  1  0
  4  5  1  0
  5  6  1  0
  6  7  1  0
  7  8  2  0
  8  9  1  0
  9 10  2  0
 10 11  1  0
 11 12  2  0
 12 13  1  0
 13 14  2  0
 14 15  1  0
 15 16  2  0
  6 17  1  0
 17 18  2  0
 17 19  1  0
 19 20  1  1
 20 21  1  0
 21 22  1  0
 22 23  1  0
 23 24  2  0
 24 25  1  0
 25 26  2  0
 26 27  1  0
 21 28  1  0
 28 29  2  0
 28 30  1  0
 30 31  2  0
 31 32  1  0
 32 33  2  0
 33 34  1  0
 33 35  1  0
 35 36  2  0
 19  4  1  0
 27 23  1  0
 36 30  1  0
 16  7  1  0
 36 19  1  0
 16 11  1  0
  1 37  1  0
  1 38  1  0
  1 39  1  0
  3 40  1  0
  3 41  1  0
  4 42  1  6
  5 43  1  0
  5 44  1  0
  8 45  1  0
 10 46  1  0
 12 47  1  0
 13 48  1  0
 14 49  1  0
 15 50  1  0
 20 51  1  0
 20 52  1  0
 22 53  1  0
 22 54  1  0
 24 55  1  0
 25 56  1  0
 26 57  1  0
 27 58  1  0
 31 59  1  0
 32 60  1  0
 35 61  1  0
M  CHG  1  25   1
M  END
$$$$
