
     RDKit          3D

 61 66  0  0  0  0  0  0  0  0999 V2000
    7.2803    4.6562   22.3831 C   0  0  0  0  0  0  0  0  0  0  0  0
    8.1059    3.7532   23.1630 N   0  0  0  0  0  0  0  0  0  0  0  0
    7.8524    3.5978   24.4791 C   0  0  0  0  0  0  0  0  0  0  0  0
    7.0732    4.3060   25.1082 O   0  0  0  0  0  0  0  0  0  0  0  0
    8.5526    2.4592   25.2214 C   0  0  0  0  0  0  0  0  0  0  0  0
    9.3937    1.5838   24.4480 N   0  0  0  0  0  0  0  0  0  0  0  0
    8.9507    0.2171   24.2041 C   0  0  0  0  0  0  0  0  0  0  0  0
    9.4972   -0.3306   22.8609 C   0  0  2  0  0  0  0  0  0  0  0  0
    8.8432    0.4777   21.7126 C   0  0  0  0  0  0  0  0  0  0  0  0
    9.1046    1.6241   21.4078 O   0  0  0  0  0  0  0  0  0  0  0  0
    7.8817   -0.2998   21.1103 N   0  0  0  0  0  0  0  0  0  0  0  0
    6.9987    0.1770   20.0995 C   0  0  0  0  0  0  0  0  0  0  0  0
    7.2138   -0.1876   18.7935 C   0  0  0  0  0  0  0  0  0  0  0  0
    6.4211    0.1721   17.7542 N   0  0  0  0  0  0  0  0  0  0  0  0
    5.3801    0.9267   18.0067 C   0  0  0  0  0  0  0  0  0  0  0  0
    5.0461    1.3919   19.3109 C   0  0  0  0  0  0  0  0  0  0  0  0
    3.9389    2.2506   19.5372 C   0  0  0  0  0  0  0  0  0  0  0  0
    3.6148    2.6544   20.8008 C   0  0  0  0  0  0  0  0  0  0  0  0
    4.3851    2.2182   21.9000 C   0  0  0  0  0  0  0  0  0  0  0  0
    5.4853    1.4181   21.7078 C   0  0  0  0  0  0  0  0  0  0  0  0
    5.8576    0.9915   20.4019 C   0  0  0  0  0  0  0  0  0  0  0  0
    7.6682   -1.5575   21.8027 C   0  0  0  0  0  0  0  0  0  0  0  0
    9.0081   -1.7652   22.5182 C   0  0  2  0  0  0  0  0  0  0  0  0
    8.9261   -2.7865   23.6602 C   0  0  0  0  0  0  0  0  0  0  0  0
   10.2327   -3.1369   24.2009 N   0  0  0  0  0  0  0  0  0  0  0  0
   11.0408   -4.0074   23.6233 N   0  0  0  0  0  0  0  0  0  0  0  0
   12.1070   -3.9356   24.4095 C   0  0  0  0  0  0  0  0  0  0  0  0
   11.9501   -3.0569   25.4201 N   0  0  0  0  0  0  0  0  0  0  0  0
   10.7502   -2.5600   25.2653 N   0  0  0  0  0  0  0  0  0  0  0  0
   11.0009   -0.1454   22.9230 C   0  0  0  0  0  0  0  0  0  0  0  0
   11.9026   -1.0672   22.3902 C   0  0  0  0  0  0  0  0  0  0  0  0
   13.2521   -0.7713   22.3246 C   0  0  0  0  0  0  0  0  0  0  0  0
   14.2966   -1.9038   21.5033 Cl  0  0  0  0  0  0  0  0  0  0  0  0
   13.7724    0.4168   22.8364 C   0  0  0  0  0  0  0  0  0  0  0  0
   12.8950    1.3125   23.4185 C   0  0  0  0  0  0  0  0  0  0  0  0
   11.5326    1.0259   23.4798 C   0  0  0  0  0  0  0  0  0  0  0  0
   10.6455    2.0301   24.1293 C   0  0  0  0  0  0  0  0  0  0  0  0
   11.0063    3.1865   24.3359 O   0  0  0  0  0  0  0  0  0  0  0  0
    7.5534    5.7086   22.5180 H   0  0  0  0  0  0  0  0  0  0  0  0
    7.3953    4.3924   21.3278 H   0  0  0  0  0  0  0  0  0  0  0  0
    6.2276    4.5477   22.6645 H   0  0  0  0  0  0  0  0  0  0  0  0
    8.6695    3.0726   22.6460 H   0  0  0  0  0  0  0  0  0  0  0  0
    9.1347    2.9126   26.0269 H   0  0  0  0  0  0  0  0  0  0  0  0
    7.7627    1.8672   25.6941 H   0  0  0  0  0  0  0  0  0  0  0  0
    7.8547    0.2044   24.1760 H   0  0  0  0  0  0  0  0  0  0  0  0
    9.2913   -0.4349   25.0187 H   0  0  0  0  0  0  0  0  0  0  0  0
    8.0923   -0.7757   18.5307 H   0  0  0  0  0  0  0  0  0  0  0  0
    4.7603    1.2364   17.1614 H   0  0  0  0  0  0  0  0  0  0  0  0
    3.3637    2.5844   18.6796 H   0  0  0  0  0  0  0  0  0  0  0  0
    2.7744    3.3219   20.9684 H   0  0  0  0  0  0  0  0  0  0  0  0
    4.1241    2.5457   22.9017 H   0  0  0  0  0  0  0  0  0  0  0  0
    6.0800    1.1079   22.5623 H   0  0  0  0  0  0  0  0  0  0  0  0
    7.4176   -2.3485   21.0891 H   0  0  0  0  0  0  0  0  0  0  0  0
    6.8432   -1.4867   22.5317 H   0  0  0  0  0  0  0  0  0  0  0  0
    9.6987   -2.1494   21.7651 H   0  0  0  0  0  0  0  0  0  0  0  0
    8.3376   -2.3934   24.4887 H   0  0  0  0  0  0  0  0  0  0  0  0
    8.4638   -3.7205   23.3361 H   0  0  0  0  0  0  0  0  0  0  0  0
   13.0177   -4.4905   24.2390 H   0  0  0  0  0  0  0  0  0  0  0  0
   11.5690   -2.0048   21.9661 H   0  0  0  0  0  0  0  0  0  0  0  0
   14.8325    0.6331   22.7306 H   0  0  0  0  0  0  0  0  0  0  0  0
   13.2441    2.2634   23.8124 H   0  0  0  0  0  0  0  0  0  0  0  0
  1  2  1  0
  2  3  1  0
  3  4  2  0
  3  5  1  0
  5  6  1  0
  6  7  1  0
  8  7  1  1
  8  9  1  0
  9 10  2  0
  9 11  1  0
 11 12  1  0
 12 13  2  0
 13 14  1  0
 14 15  2  0
 15 16  1  0
 16 17  2  0
 17 18  1  0
 18 19  2  0
 19 20  1  0
 20 21  2  0
 11 22  1  0
 22 23  1  0
 23 24  1  0
 24 25  1  0
 25 26  1  0
 26 27  2  0
 27 28  1  0
 28 29  2  0
  8 30  1  0
 30 31  2  0
 31 32  1  0
 32 33  1  0
 32 34  2  0
 34 35  1  0
 35 36  2  0
 36 37  1  0
 37 38  2  0
 37  6  1  0
 23  8  1  0
 29 25  1  0
 36 30  1  0
 21 12  1  0
 21 16  1  0
  1 39  1  0
  1 40  1  0
  1 41  1  0
  2 42  1  0
  5 43  1  0
  5 44  1  0
  7 45  1  0
  7 46  1  0
 13 47  1  0
 15 48  1  0
 17 49  1  0
 18 50  1  0
 19 51  1  0
 20 52  1  0
 22 53  1  0
 22 54  1  0
 23 55  1  6
 24 56  1  0
 24 57  1  0
 27 58  1  0
 31 59  1  0
 34 60  1  0
 35 61  1  0
M  END
$$$$
