LIG(A-306)
     RDKit          3D

 27 29  0  0  1  0  0  0  0  0999 V2000
  -14.3729   -2.4857  -21.9901 Cl  0  0  0  0  0  0  0  0  0  0  0  0
  -12.9806   -1.6210  -22.5539 C   0  0  0  0  0  0  0  0  0  0  0  0
  -13.1153   -0.5497  -23.4231 C   0  0  0  0  0  0  0  0  0  0  0  0
  -14.6763    0.0962  -23.8008 Cl  0  0  0  0  0  0  0  0  0  0  0  0
  -11.9876    0.0435  -23.9655 C   0  0  0  0  0  0  0  0  0  0  0  0
  -10.7342   -0.4166  -23.6127 C   0  0  0  0  0  0  0  0  0  0  0  0
  -11.7221   -2.0592  -22.1810 C   0  0  0  0  0  0  0  0  0  0  0  0
  -10.5834   -1.4551  -22.7034 C   0  0  0  0  0  0  0  0  0  0  0  0
   -9.2138   -1.8928  -22.2487 C   0  0  1  0  0  0  0  0  0  0  0  0
   -8.4654   -2.3787  -23.3664 O   0  0  0  0  0  0  0  0  0  0  0  0
   -8.5079   -3.8031  -23.5112 C   0  0  0  0  0  0  0  0  0  0  0  0
   -7.3923   -4.4374  -22.7348 C   0  0  0  0  0  0  0  0  0  0  0  0
   -7.2488   -5.8411  -22.9268 O   0  0  0  0  0  0  0  0  0  0  0  0
   -6.1041   -6.3480  -22.2511 C   0  0  0  0  0  0  0  0  0  0  0  0
   -8.5202   -0.8042  -21.4219 C   0  0  0  0  0  0  0  0  0  0  0  0
   -8.7288    0.3860  -21.6475 O   0  0  0  0  0  0  0  0  0  0  0  0
   -7.8429   -1.2545  -20.3503 N   0  0  0  0  0  0  0  0  0  0  0  0
   -6.9113   -0.6145  -19.5133 C   0  0  0  0  0  0  0  0  0  0  0  0
   -6.0166    0.3971  -19.9960 C   0  0  0  0  0  0  0  0  0  0  0  0
   -5.6270    0.5299  -21.3550 C   0  0  0  0  0  0  0  0  0  0  0  0
   -4.6654    1.4269  -21.7302 C   0  0  0  0  0  0  0  0  0  0  0  0
   -4.0434    2.2293  -20.7903 C   0  0  0  0  0  0  0  0  0  0  0  0
   -4.3858    2.1465  -19.4721 C   0  0  0  0  0  0  0  0  0  0  0  0
   -5.3774    1.2313  -19.0379 C   0  0  0  0  0  0  0  0  0  0  0  0
   -5.6901    1.0264  -17.6762 C   0  0  0  0  0  0  0  0  0  0  0  0
   -6.5017    0.0867  -17.2304 N   0  0  0  0  0  0  0  0  0  0  0  0
   -7.0717   -0.7149  -18.1344 C   0  0  0  0  0  0  0  0  0  0  0  0
  1  2  1  0
  2  3  2  0
  2  7  1  0
  3  4  1  0
  3  5  1  0
  5  6  2  0
  6  8  1  0
  7  8  2  0
  8  9  1  0
  9 10  1  6
  9 15  1  0
 10 11  1  0
 11 12  1  0
 12 13  1  0
 13 14  1  0
 15 16  2  0
 15 17  1  0
 17 18  1  0
 18 19  1  0
 18 27  2  0
 19 20  2  0
 19 24  1  0
 20 21  1  0
 21 22  2  0
 22 23  1  0
 23 24  2  0
 24 25  1  0
 25 26  2  0
 26 27  1  0
M  END
$$$$
