
     RDKit          3D

 72 77  0  0  0  0  0  0  0  0999 V2000
    3.3332    4.8954   26.3199 C   0  0  0  0  0  0  0  0  0  0  0  0
    4.8330    5.0933   26.5153 C   0  0  2  0  0  0  0  0  0  0  0  0
    5.0200    6.3470   27.3800 C   0  0  0  0  0  0  0  0  0  0  0  0
    6.3474    6.8007   27.4771 O   0  0  0  0  0  0  0  0  0  0  0  0
    6.8587    7.0670   26.1902 C   0  0  0  0  0  0  0  0  0  0  0  0
    6.9851    5.7819   25.3905 C   0  0  1  0  0  0  0  0  0  0  0  0
    7.8987    4.8119   26.1038 C   0  0  0  0  0  0  0  0  0  0  0  0
    5.6181    5.1659   25.1868 N   0  0  0  0  0  0  0  0  0  0  0  0
    5.6464    3.8468   24.4320 C   0  0  0  0  0  0  0  0  0  0  0  0
    6.5603    3.7549   23.1789 C   0  0  0  0  0  0  0  0  0  0  0  0
    7.8023    2.9699   23.3101 N   0  0  0  0  0  0  0  0  0  0  0  0
    7.7217    1.5271   23.5394 C   0  0  0  0  0  0  0  0  0  0  0  0
    8.4787    0.7096   22.4514 C   0  0  2  0  0  0  0  0  0  0  0  0
    7.7523    0.9653   21.1110 C   0  0  0  0  0  0  0  0  0  0  0  0
    7.7891    1.9527   20.4107 O   0  0  0  0  0  0  0  0  0  0  0  0
    6.9628   -0.1324   20.8283 N   0  0  0  0  0  0  0  0  0  0  0  0
    5.9511   -0.0542   19.8422 C   0  0  0  0  0  0  0  0  0  0  0  0
    6.1177   -0.7070   18.6503 C   0  0  0  0  0  0  0  0  0  0  0  0
    5.2764   -0.5955   17.5952 N   0  0  0  0  0  0  0  0  0  0  0  0
    4.2189    0.1680   17.7466 C   0  0  0  0  0  0  0  0  0  0  0  0
    3.8905    0.8491   18.9537 C   0  0  0  0  0  0  0  0  0  0  0  0
    2.7190    1.6417   19.0806 C   0  0  0  0  0  0  0  0  0  0  0  0
    2.3830    2.2058   20.2800 C   0  0  0  0  0  0  0  0  0  0  0  0
    3.2086    2.0089   21.4080 C   0  0  0  0  0  0  0  0  0  0  0  0
    4.3641    1.2749   21.3037 C   0  0  0  0  0  0  0  0  0  0  0  0
    4.7557    0.7025   20.0595 C   0  0  0  0  0  0  0  0  0  0  0  0
    7.0445   -1.1955   21.8089 C   0  0  0  0  0  0  0  0  0  0  0  0
    8.3329   -0.8363   22.5663 C   0  0  2  0  0  0  0  0  0  0  0  0
    8.4512   -1.3882   23.9817 C   0  0  0  0  0  0  0  0  0  0  0  0
    9.9065    1.2130   22.4968 C   0  0  0  0  0  0  0  0  0  0  0  0
   11.0153    0.3724   22.3572 C   0  0  0  0  0  0  0  0  0  0  0  0
   12.2813    0.9138   22.2421 C   0  0  0  0  0  0  0  0  0  0  0  0
   13.6190   -0.1553   21.9254 Cl  0  0  0  0  0  0  0  0  0  0  0  0
   12.5124    2.2841   22.3134 C   0  0  0  0  0  0  0  0  0  0  0  0
   11.4278    3.1099   22.5460 C   0  0  0  0  0  0  0  0  0  0  0  0
   10.1389    2.5882   22.6530 C   0  0  0  0  0  0  0  0  0  0  0  0
    8.9905    3.5359   22.9223 C   0  0  0  0  0  0  0  0  0  0  0  0
    9.1275    4.7520   22.8120 O   0  0  0  0  0  0  0  0  0  0  0  0
    2.9284    5.6542   25.6363 H   0  0  0  0  0  0  0  0  0  0  0  0
    2.8422    5.0255   27.2931 H   0  0  0  0  0  0  0  0  0  0  0  0
    3.0694    3.8988   25.9527 H   0  0  0  0  0  0  0  0  0  0  0  0
    5.2244    4.2321   27.0688 H   0  0  0  0  0  0  0  0  0  0  0  0
    4.3704    7.1535   26.9973 H   0  0  0  0  0  0  0  0  0  0  0  0
    4.6868    6.1236   28.4023 H   0  0  0  0  0  0  0  0  0  0  0  0
    7.8547    7.5076   26.3331 H   0  0  0  0  0  0  0  0  0  0  0  0
    6.2057    7.7831   25.6655 H   0  0  0  0  0  0  0  0  0  0  0  0
    7.4038    6.0287   24.4090 H   0  0  0  0  0  0  0  0  0  0  0  0
    8.3475    4.1622   25.3538 H   0  0  0  0  0  0  0  0  0  0  0  0
    8.6617    5.3859   26.6419 H   0  0  0  0  0  0  0  0  0  0  0  0
    7.3619    4.1744   26.8101 H   0  0  0  0  0  0  0  0  0  0  0  0
    5.0952    5.8204   24.5728 H   0  0  0  0  0  0  0  0  0  0  0  0
    4.6194    3.6924   24.0845 H   0  0  0  0  0  0  0  0  0  0  0  0
    5.8916    3.0313   25.1241 H   0  0  0  0  0  0  0  0  0  0  0  0
    5.9604    3.3077   22.3663 H   0  0  0  0  0  0  0  0  0  0  0  0
    6.8646    4.7484   22.8427 H   0  0  0  0  0  0  0  0  0  0  0  0
    6.6684    1.2401   23.5724 H   0  0  0  0  0  0  0  0  0  0  0  0
    8.1584    1.3012   24.5184 H   0  0  0  0  0  0  0  0  0  0  0  0
    6.9844   -1.3527   18.5089 H   0  0  0  0  0  0  0  0  0  0  0  0
    3.5437    0.2540   16.8951 H   0  0  0  0  0  0  0  0  0  0  0  0
    2.0993    1.7917   18.2032 H   0  0  0  0  0  0  0  0  0  0  0  0
    1.4776    2.7981   20.3721 H   0  0  0  0  0  0  0  0  0  0  0  0
    2.9255    2.4395   22.3643 H   0  0  0  0  0  0  0  0  0  0  0  0
    4.9782    1.1256   22.1859 H   0  0  0  0  0  0  0  0  0  0  0  0
    6.1630   -1.2219   22.4702 H   0  0  0  0  0  0  0  0  0  0  0  0
    7.0985   -2.1656   21.3017 H   0  0  0  0  0  0  0  0  0  0  0  0
    9.1363   -1.2544   21.9474 H   0  0  0  0  0  0  0  0  0  0  0  0
    8.4505   -2.4835   23.9988 H   0  0  0  0  0  0  0  0  0  0  0  0
    9.3850   -1.0446   24.4426 H   0  0  0  0  0  0  0  0  0  0  0  0
    7.6233   -1.0405   24.6114 H   0  0  0  0  0  0  0  0  0  0  0  0
   10.9290   -0.7060   22.3820 H   0  0  0  0  0  0  0  0  0  0  0  0
   13.5196    2.6717   22.1929 H   0  0  0  0  0  0  0  0  0  0  0  0
   11.5471    4.1790   22.6537 H   0  0  0  0  0  0  0  0  0  0  0  0
  1  2  1  0
  2  3  1  0
  3  4  1  0
  4  5  1  0
  5  6  1  0
  6  7  1  0
  6  8  1  0
  8  9  1  0
  9 10  1  0
 10 11  1  0
 11 12  1  0
 13 12  1  1
 13 14  1  0
 14 15  2  0
 14 16  1  0
 16 17  1  0
 17 18  2  0
 18 19  1  0
 19 20  2  0
 20 21  1  0
 21 22  2  0
 22 23  1  0
 23 24  2  0
 24 25  1  0
 25 26  2  0
 16 27  1  0
 27 28  1  0
 28 29  1  0
 13 30  1  0
 30 31  2  0
 31 32  1  0
 32 33  1  0
 32 34  2  0
 34 35  1  0
 35 36  2  0
 36 37  1  0
 37 38  2  0
  8  2  1  0
 37 11  1  0
 28 13  1  0
 36 30  1  0
 26 17  1  0
 26 21  1  0
  1 39  1  0
  1 40  1  0
  1 41  1  0
  2 42  1  1
  3 43  1  0
  3 44  1  0
  5 45  1  0
  5 46  1  0
  6 47  1  6
  7 48  1  0
  7 49  1  0
  7 50  1  0
  8 51  1  0
  9 52  1  0
  9 53  1  0
 10 54  1  0
 10 55  1  0
 12 56  1  0
 12 57  1  0
 18 58  1  0
 20 59  1  0
 22 60  1  0
 23 61  1  0
 24 62  1  0
 25 63  1  0
 27 64  1  0
 27 65  1  0
 28 66  1  6
 29 67  1  0
 29 68  1  0
 29 69  1  0
 31 70  1  0
 34 71  1  0
 35 72  1  0
M  CHG  1   8   1
M  END
$$$$
