
     RDKit          3D

 60 65  0  0  0  0  0  0  0  0999 V2000
   10.7089   -1.9684   24.4222 C   0  0  0  0  0  0  0  0  0  0  0  0
    9.6621   -1.0465   24.6056 O   0  0  0  0  0  0  0  0  0  0  0  0
    8.4827   -1.3874   23.9122 C   0  0  0  0  0  0  0  0  0  0  0  0
    8.4619   -0.8479   22.4794 C   0  0  1  0  0  0  0  0  0  0  0  0
    7.1875   -1.2708   21.7281 C   0  0  0  0  0  0  0  0  0  0  0  0
    6.9374   -0.1609   20.8378 N   0  0  0  0  0  0  0  0  0  0  0  0
    5.9077   -0.1191   19.8706 C   0  0  0  0  0  0  0  0  0  0  0  0
    6.0628   -0.7861   18.6839 C   0  0  0  0  0  0  0  0  0  0  0  0
    5.2259   -0.6728   17.6260 N   0  0  0  0  0  0  0  0  0  0  0  0
    4.1736    0.0989   17.7753 C   0  0  0  0  0  0  0  0  0  0  0  0
    3.8456    0.7749   18.9848 C   0  0  0  0  0  0  0  0  0  0  0  0
    2.6635    1.5508   19.1114 C   0  0  0  0  0  0  0  0  0  0  0  0
    2.3311    2.1282   20.3054 C   0  0  0  0  0  0  0  0  0  0  0  0
    3.1833    1.9852   21.4224 C   0  0  0  0  0  0  0  0  0  0  0  0
    4.3552    1.2763   21.3155 C   0  0  0  0  0  0  0  0  0  0  0  0
    4.7214    0.6534   20.0849 C   0  0  0  0  0  0  0  0  0  0  0  0
    7.7181    0.9539   21.0640 C   0  0  0  0  0  0  0  0  0  0  0  0
    7.6659    1.9463   20.3750 O   0  0  0  0  0  0  0  0  0  0  0  0
    8.5678    0.7007   22.3352 C   0  0  1  0  0  0  0  0  0  0  0  0
    7.8918    1.4586   23.5023 C   0  0  0  0  0  0  0  0  0  0  0  0
    7.9468    2.8886   23.2455 N   0  0  0  0  0  0  0  0  0  0  0  0
    6.8235    3.7233   23.6284 C   0  0  0  0  0  0  0  0  0  0  0  0
    6.7111    3.8877   25.1157 C   0  0  0  0  0  0  0  0  0  0  0  0
    5.9706    3.1499   25.9113 N   0  0  0  0  0  0  0  0  0  0  0  0
    6.1948    3.6538   27.1718 C   0  0  0  0  0  0  0  0  0  0  0  0
    7.0724    4.7003   27.1287 C   0  0  0  0  0  0  0  0  0  0  0  0
    7.4127    4.8320   25.7987 N   0  0  0  0  0  0  0  0  0  0  0  0
    9.1516    3.5087   23.0649 C   0  0  0  0  0  0  0  0  0  0  0  0
    9.3257    4.6868   23.3657 O   0  0  0  0  0  0  0  0  0  0  0  0
   10.2175    2.6387   22.4810 C   0  0  0  0  0  0  0  0  0  0  0  0
   11.4678    3.2123   22.2337 C   0  0  0  0  0  0  0  0  0  0  0  0
   12.5561    2.4068   21.9508 C   0  0  0  0  0  0  0  0  0  0  0  0
   12.3503    1.0311   21.8490 C   0  0  0  0  0  0  0  0  0  0  0  0
   13.6943   -0.0235   21.5308 Cl  0  0  0  0  0  0  0  0  0  0  0  0
   11.0895    0.4683   21.9578 C   0  0  0  0  0  0  0  0  0  0  0  0
    9.9833    1.2664   22.2622 C   0  0  0  0  0  0  0  0  0  0  0  0
   11.5924   -1.5484   24.9085 H   0  0  0  0  0  0  0  0  0  0  0  0
   10.9394   -2.1450   23.3613 H   0  0  0  0  0  0  0  0  0  0  0  0
   10.4750   -2.9420   24.8824 H   0  0  0  0  0  0  0  0  0  0  0  0
    8.3377   -2.4801   23.9080 H   0  0  0  0  0  0  0  0  0  0  0  0
    7.6455   -0.9566   24.4766 H   0  0  0  0  0  0  0  0  0  0  0  0
    9.3052   -1.2791   21.9343 H   0  0  0  0  0  0  0  0  0  0  0  0
    7.3309   -2.1949   21.1563 H   0  0  0  0  0  0  0  0  0  0  0  0
    6.3432   -1.4386   22.4134 H   0  0  0  0  0  0  0  0  0  0  0  0
    6.9271   -1.4338   18.5405 H   0  0  0  0  0  0  0  0  0  0  0  0
    3.5009    0.1962   16.9221 H   0  0  0  0  0  0  0  0  0  0  0  0
    2.0387    1.6873   18.2364 H   0  0  0  0  0  0  0  0  0  0  0  0
    1.4113    2.6992   20.4001 H   0  0  0  0  0  0  0  0  0  0  0  0
    2.9109    2.4511   22.3658 H   0  0  0  0  0  0  0  0  0  0  0  0
    5.0061    1.1853   22.1809 H   0  0  0  0  0  0  0  0  0  0  0  0
    6.8441    1.1722   23.6291 H   0  0  0  0  0  0  0  0  0  0  0  0
    8.4183    1.2030   24.4325 H   0  0  0  0  0  0  0  0  0  0  0  0
    5.8951    3.2819   23.2430 H   0  0  0  0  0  0  0  0  0  0  0  0
    6.9735    4.7027   23.1601 H   0  0  0  0  0  0  0  0  0  0  0  0
    5.7072    3.2201   28.0365 H   0  0  0  0  0  0  0  0  0  0  0  0
    7.4373    5.3707   27.8945 H   0  0  0  0  0  0  0  0  0  0  0  0
    8.1655    5.3784   25.3936 H   0  0  0  0  0  0  0  0  0  0  0  0
   11.5929    4.2892   22.3168 H   0  0  0  0  0  0  0  0  0  0  0  0
   13.5420    2.8380   21.8053 H   0  0  0  0  0  0  0  0  0  0  0  0
   10.9805   -0.5913   21.7657 H   0  0  0  0  0  0  0  0  0  0  0  0
  1  2  1  0
  2  3  1  0
  3  4  1  0
  4  5  1  0
  5  6  1  0
  6  7  1  0
  7  8  2  0
  8  9  1  0
  9 10  2  0
 10 11  1  0
 11 12  2  0
 12 13  1  0
 13 14  2  0
 14 15  1  0
 15 16  2  0
  6 17  1  0
 17 18  2  0
 17 19  1  0
 19 20  1  1
 20 21  1  0
 21 22  1  0
 22 23  1  0
 23 24  2  0
 24 25  1  0
 25 26  2  0
 26 27  1  0
 21 28  1  0
 28 29  2  0
 28 30  1  0
 30 31  2  0
 31 32  1  0
 32 33  2  0
 33 34  1  0
 33 35  1  0
 35 36  2  0
 19  4  1  0
 27 23  1  0
 36 30  1  0
 16  7  1  0
 36 19  1  0
 16 11  1  0
  1 37  1  0
  1 38  1  0
  1 39  1  0
  3 40  1  0
  3 41  1  0
  4 42  1  6
  5 43  1  0
  5 44  1  0
  8 45  1  0
 10 46  1  0
 12 47  1  0
 13 48  1  0
 14 49  1  0
 15 50  1  0
 20 51  1  0
 20 52  1  0
 22 53  1  0
 22 54  1  0
 25 55  1  0
 26 56  1  0
 27 57  1  0
 31 58  1  0
 32 59  1  0
 35 60  1  0
M  END
$$$$
