
     RDKit          3D

 44 47  0  0  0  0  0  0  0  0999 V2000
    7.0063   -6.1146   22.4167 C   0  0  0  0  0  0  0  0  0  0  0  0
    8.3216   -5.7234   23.0851 C   0  0  0  0  0  0  0  0  0  0  0  0
    8.2076   -4.6495   24.1845 C   0  0  1  0  0  0  0  0  0  0  0  0
    7.5283   -5.0937   25.4697 C   0  0  0  0  0  0  0  0  0  0  0  0
    6.1409   -5.4122   25.6647 C   0  0  0  0  0  0  0  0  0  0  0  0
    5.8622   -5.8118   26.9380 C   0  0  0  0  0  0  0  0  0  0  0  0
    7.2589   -5.7380   27.9411 S   0  0  0  0  0  0  0  0  0  0  0  0
    8.2354   -5.1930   26.6295 C   0  0  0  0  0  0  0  0  0  0  0  0
    9.6749   -4.8275   26.8164 C   0  0  0  0  0  0  0  0  0  0  0  0
   10.3544   -4.8572   25.4508 C   0  0  0  0  0  0  0  0  0  0  0  0
    9.5494   -4.0954   24.4850 N   0  0  0  0  0  0  0  0  0  0  0  0
    9.8519   -2.7465   24.4264 C   0  0  0  0  0  0  0  0  0  0  0  0
   10.6701   -2.2654   25.1902 O   0  0  0  0  0  0  0  0  0  0  0  0
    9.1827   -1.8972   23.3224 C   0  0  0  0  0  0  0  0  0  0  0  0
    9.6455   -0.4730   23.4503 C   0  0  0  0  0  0  0  0  0  0  0  0
    8.8105    0.5083   23.9208 C   0  0  0  0  0  0  0  0  0  0  0  0
    9.2067    1.7647   24.2528 N   0  0  0  0  0  0  0  0  0  0  0  0
   10.4823    2.0535   24.1162 C   0  0  0  0  0  0  0  0  0  0  0  0
   11.4583    1.1562   23.5920 C   0  0  0  0  0  0  0  0  0  0  0  0
   12.8464    1.4635   23.5188 C   0  0  0  0  0  0  0  0  0  0  0  0
   13.7301    0.5734   22.9640 C   0  0  0  0  0  0  0  0  0  0  0  0
   13.2816   -0.6907   22.5224 C   0  0  0  0  0  0  0  0  0  0  0  0
   11.9608   -1.0462   22.6531 C   0  0  0  0  0  0  0  0  0  0  0  0
   11.0163   -0.1367   23.2113 C   0  0  0  0  0  0  0  0  0  0  0  0
    6.3201   -6.6319   23.0937 H   0  0  0  0  0  0  0  0  0  0  0  0
    7.2034   -6.7917   21.5774 H   0  0  0  0  0  0  0  0  0  0  0  0
    6.4894   -5.2365   22.0094 H   0  0  0  0  0  0  0  0  0  0  0  0
    8.8258   -6.6080   23.4914 H   0  0  0  0  0  0  0  0  0  0  0  0
    8.9682   -5.3005   22.3113 H   0  0  0  0  0  0  0  0  0  0  0  0
    7.5967   -3.8435   23.7622 H   0  0  0  0  0  0  0  0  0  0  0  0
    5.3710   -5.3123   24.9055 H   0  0  0  0  0  0  0  0  0  0  0  0
    4.9212   -6.1609   27.3404 H   0  0  0  0  0  0  0  0  0  0  0  0
   10.1619   -5.5053   27.5285 H   0  0  0  0  0  0  0  0  0  0  0  0
    9.7336   -3.8035   27.2197 H   0  0  0  0  0  0  0  0  0  0  0  0
   11.3454   -4.4031   25.5222 H   0  0  0  0  0  0  0  0  0  0  0  0
   10.4740   -5.8910   25.0987 H   0  0  0  0  0  0  0  0  0  0  0  0
    9.4428   -2.3149   22.3340 H   0  0  0  0  0  0  0  0  0  0  0  0
    8.0894   -1.9479   23.4234 H   0  0  0  0  0  0  0  0  0  0  0  0
    7.7448    0.3163   24.0796 H   0  0  0  0  0  0  0  0  0  0  0  0
   10.7826    3.0591   24.4164 H   0  0  0  0  0  0  0  0  0  0  0  0
   13.1823    2.4316   23.8847 H   0  0  0  0  0  0  0  0  0  0  0  0
   14.7826    0.8372   22.8771 H   0  0  0  0  0  0  0  0  0  0  0  0
   14.0014   -1.3822   22.0863 H   0  0  0  0  0  0  0  0  0  0  0  0
   11.6425   -2.0324   22.3303 H   0  0  0  0  0  0  0  0  0  0  0  0
  1  2  1  0
  2  3  1  0
  3  4  1  0
  4  5  1  0
  5  6  2  0
  6  7  1  0
  7  8  1  0
  8  9  1  0
  9 10  1  0
 10 11  1  0
 11 12  1  0
 12 13  2  0
 12 14  1  0
 14 15  1  0
 15 16  2  0
 16 17  1  0
 17 18  2  0
 18 19  1  0
 19 20  2  0
 20 21  1  0
 21 22  2  0
 22 23  1  0
 23 24  2  0
 11  3  1  0
 24 15  1  0
  8  4  2  0
 24 19  1  0
  1 25  1  0
  1 26  1  0
  1 27  1  0
  2 28  1  0
  2 29  1  0
  3 30  1  6
  5 31  1  0
  6 32  1  0
  9 33  1  0
  9 34  1  0
 10 35  1  0
 10 36  1  0
 14 37  1  0
 14 38  1  0
 16 39  1  0
 18 40  1  0
 20 41  1  0
 21 42  1  0
 22 43  1  0
 23 44  1  0
M  END
$$$$
