
     RDKit          3D

 59 64  0  0  0  0  0  0  0  0999 V2000
   -8.4239   -3.8270  -23.7056 C   0  0  0  0  0  0  0  0  0  0  0  0
   -8.5299   -2.8342  -22.5574 C   0  0  1  0  0  0  0  0  0  0  0  0
   -7.2145   -2.5836  -21.8099 C   0  0  0  0  0  0  0  0  0  0  0  0
   -7.4939   -1.3379  -21.1270 N   0  0  0  0  0  0  0  0  0  0  0  0
   -6.6428   -0.8204  -20.1144 C   0  0  0  0  0  0  0  0  0  0  0  0
   -6.8727   -1.1692  -18.8064 C   0  0  0  0  0  0  0  0  0  0  0  0
   -6.0997   -0.7854  -17.7601 N   0  0  0  0  0  0  0  0  0  0  0  0
   -5.0727   -0.0122  -18.0130 C   0  0  0  0  0  0  0  0  0  0  0  0
   -4.7358    0.4508  -19.3163 C   0  0  0  0  0  0  0  0  0  0  0  0
   -3.6590    1.3517  -19.5266 C   0  0  0  0  0  0  0  0  0  0  0  0
   -3.3373    1.7602  -20.7894 C   0  0  0  0  0  0  0  0  0  0  0  0
   -4.0698    1.2900  -21.9003 C   0  0  0  0  0  0  0  0  0  0  0  0
   -5.1400    0.4471  -21.7200 C   0  0  0  0  0  0  0  0  0  0  0  0
   -5.5174    0.0194  -20.4143 C   0  0  0  0  0  0  0  0  0  0  0  0
   -8.4637   -0.5840  -21.7630 C   0  0  0  0  0  0  0  0  0  0  0  0
   -8.7659    0.5449  -21.4594 O   0  0  0  0  0  0  0  0  0  0  0  0
   -9.0592   -1.4244  -22.9236 C   0  0  1  0  0  0  0  0  0  0  0  0
   -8.5081   -0.8932  -24.2728 C   0  0  0  0  0  0  0  0  0  0  0  0
   -8.9306    0.4717  -24.5044 N   0  0  0  0  0  0  0  0  0  0  0  0
   -8.0685    1.3576  -25.2545 C   0  0  0  0  0  0  0  0  0  0  0  0
   -8.2670    1.2557  -26.7482 C   0  0  0  0  0  0  0  0  0  0  0  0
   -8.2342    0.1691  -27.6032 C   0  0  0  0  0  0  0  0  0  0  0  0
   -8.4899    0.7150  -28.8751 C   0  0  0  0  0  0  0  0  0  0  0  0
   -8.6846    2.0197  -28.8236 N   0  0  0  0  0  0  0  0  0  0  0  0
   -8.5357    2.3399  -27.5290 N   0  0  0  0  0  0  0  0  0  0  0  0
   -8.9225    3.6685  -27.0987 C   0  0  0  0  0  0  0  0  0  0  0  0
  -10.1978    0.8971  -24.2253 C   0  0  0  0  0  0  0  0  0  0  0  0
  -10.5865    2.0372  -24.4482 O   0  0  0  0  0  0  0  0  0  0  0  0
  -11.0973   -0.1311  -23.6130 C   0  0  0  0  0  0  0  0  0  0  0  0
  -12.4660    0.1347  -23.5973 C   0  0  0  0  0  0  0  0  0  0  0  0
  -13.3466   -0.7792  -23.0545 C   0  0  0  0  0  0  0  0  0  0  0  0
  -12.8180   -1.9672  -22.5609 C   0  0  0  0  0  0  0  0  0  0  0  0
  -13.6631   -2.8614  -22.0185 F   0  0  0  0  0  0  0  0  0  0  0  0
  -11.4685   -2.2625  -22.5732 C   0  0  0  0  0  0  0  0  0  0  0  0
  -10.5670   -1.2973  -23.0373 C   0  0  0  0  0  0  0  0  0  0  0  0
   -8.1273   -4.8246  -23.3648 H   0  0  0  0  0  0  0  0  0  0  0  0
   -9.3808   -3.9213  -24.2280 H   0  0  0  0  0  0  0  0  0  0  0  0
   -7.6787   -3.5042  -24.4401 H   0  0  0  0  0  0  0  0  0  0  0  0
   -9.2109   -3.2352  -21.7971 H   0  0  0  0  0  0  0  0  0  0  0  0
   -6.9738   -3.3612  -21.0787 H   0  0  0  0  0  0  0  0  0  0  0  0
   -6.3572   -2.4894  -22.5018 H   0  0  0  0  0  0  0  0  0  0  0  0
   -7.7392   -1.7804  -18.5560 H   0  0  0  0  0  0  0  0  0  0  0  0
   -4.4499    0.3040  -17.1735 H   0  0  0  0  0  0  0  0  0  0  0  0
   -3.1048    1.7053  -18.6612 H   0  0  0  0  0  0  0  0  0  0  0  0
   -2.5177    2.4538  -20.9468 H   0  0  0  0  0  0  0  0  0  0  0  0
   -3.7914    1.6077  -22.9000 H   0  0  0  0  0  0  0  0  0  0  0  0
   -5.7126    0.1166  -22.5823 H   0  0  0  0  0  0  0  0  0  0  0  0
   -8.8615   -1.5489  -25.0838 H   0  0  0  0  0  0  0  0  0  0  0  0
   -7.4147   -0.9289  -24.2554 H   0  0  0  0  0  0  0  0  0  0  0  0
   -7.0353    1.1153  -24.9685 H   0  0  0  0  0  0  0  0  0  0  0  0
   -8.2751    2.3674  -24.8856 H   0  0  0  0  0  0  0  0  0  0  0  0
   -8.0594   -0.8648  -27.3254 H   0  0  0  0  0  0  0  0  0  0  0  0
   -8.5476    0.2437  -29.8479 H   0  0  0  0  0  0  0  0  0  0  0  0
   -8.0685    4.2477  -26.7364 H   0  0  0  0  0  0  0  0  0  0  0  0
   -9.3270    4.1638  -27.9791 H   0  0  0  0  0  0  0  0  0  0  0  0
   -9.6894    3.6082  -26.3223 H   0  0  0  0  0  0  0  0  0  0  0  0
  -12.8179    1.0808  -23.9938 H   0  0  0  0  0  0  0  0  0  0  0  0
  -14.4195   -0.6121  -23.0011 H   0  0  0  0  0  0  0  0  0  0  0  0
  -11.1567   -3.2318  -22.1982 H   0  0  0  0  0  0  0  0  0  0  0  0
  1  2  1  0
  2  3  1  0
  3  4  1  0
  4  5  1  0
  5  6  2  0
  6  7  1  0
  7  8  2  0
  8  9  1  0
  9 10  2  0
 10 11  1  0
 11 12  2  0
 12 13  1  0
 13 14  2  0
  4 15  1  0
 15 16  2  0
 15 17  1  0
 17 18  1  6
 18 19  1  0
 19 20  1  0
 20 21  1  0
 21 22  2  0
 22 23  1  0
 23 24  2  0
 24 25  1  0
 25 26  1  0
 19 27  1  0
 27 28  2  0
 27 29  1  0
 29 30  2  0
 30 31  1  0
 31 32  2  0
 32 33  1  0
 32 34  1  0
 34 35  2  0
 17  2  1  0
 25 21  1  0
 35 29  1  0
 14  5  1  0
 35 17  1  0
 14  9  1  0
  1 36  1  0
  1 37  1  0
  1 38  1  0
  2 39  1  1
  3 40  1  0
  3 41  1  0
  6 42  1  0
  8 43  1  0
 10 44  1  0
 11 45  1  0
 12 46  1  0
 13 47  1  0
 18 48  1  0
 18 49  1  0
 20 50  1  0
 20 51  1  0
 22 52  1  0
 23 53  1  0
 26 54  1  0
 26 55  1  0
 26 56  1  0
 30 57  1  0
 31 58  1  0
 34 59  1  0
M  END
