
     RDKit          3D

 59 64  0  0  0  0  0  0  0  0999 V2000
    8.9293   -2.7425   23.6843 C   0  0  0  0  0  0  0  0  0  0  0  0
    8.9824   -1.7659   22.5187 C   0  0  1  0  0  0  0  0  0  0  0  0
    7.6445   -1.5640   21.7968 C   0  0  0  0  0  0  0  0  0  0  0  0
    7.8739   -0.3223   21.0884 N   0  0  0  0  0  0  0  0  0  0  0  0
    6.9868    0.1549   20.0870 C   0  0  0  0  0  0  0  0  0  0  0  0
    7.1979   -0.2086   18.7799 C   0  0  0  0  0  0  0  0  0  0  0  0
    6.3918    0.1366   17.7451 N   0  0  0  0  0  0  0  0  0  0  0  0
    5.3493    0.8851   18.0087 C   0  0  0  0  0  0  0  0  0  0  0  0
    5.0280    1.3597   19.3117 C   0  0  0  0  0  0  0  0  0  0  0  0
    3.9312    2.2337   19.5318 C   0  0  0  0  0  0  0  0  0  0  0  0
    3.6257    2.6536   20.7949 C   0  0  0  0  0  0  0  0  0  0  0  0
    4.3951    2.2220   21.8964 C   0  0  0  0  0  0  0  0  0  0  0  0
    5.4844    1.4063   21.7056 C   0  0  0  0  0  0  0  0  0  0  0  0
    5.8451    0.9680   20.3987 C   0  0  0  0  0  0  0  0  0  0  0  0
    8.8358    0.4684   21.6909 C   0  0  0  0  0  0  0  0  0  0  0  0
    9.0996    1.6002   21.3630 O   0  0  0  0  0  0  0  0  0  0  0  0
    9.4798   -0.3362   22.8510 C   0  0  1  0  0  0  0  0  0  0  0  0
    8.9435    0.2014   24.2036 C   0  0  0  0  0  0  0  0  0  0  0  0
    9.3325    1.5810   24.4044 N   0  0  0  0  0  0  0  0  0  0  0  0
    8.4624    2.4548   25.1595 C   0  0  0  0  0  0  0  0  0  0  0  0
    8.6962    2.3827   26.6499 C   0  0  0  0  0  0  0  0  0  0  0  0
    8.7125    1.3096   27.5223 C   0  0  0  0  0  0  0  0  0  0  0  0
    8.9804    1.8830   28.7795 C   0  0  0  0  0  0  0  0  0  0  0  0
    9.1373    3.1916   28.7033 N   0  0  0  0  0  0  0  0  0  0  0  0
    8.9513    3.4865   27.4075 N   0  0  0  0  0  0  0  0  0  0  0  0
    9.2912    4.8181   26.9480 C   0  0  0  0  0  0  0  0  0  0  0  0
   10.5809    2.0368   24.0906 C   0  0  0  0  0  0  0  0  0  0  0  0
   10.9422    3.1907   24.2870 O   0  0  0  0  0  0  0  0  0  0  0  0
   11.4953    1.0241   23.4746 C   0  0  0  0  0  0  0  0  0  0  0  0
   12.8554    1.3274   23.4244 C   0  0  0  0  0  0  0  0  0  0  0  0
   13.7492    0.4295   22.8765 C   0  0  0  0  0  0  0  0  0  0  0  0
   13.2435   -0.7805   22.4134 C   0  0  0  0  0  0  0  0  0  0  0  0
   14.1014   -1.6597   21.8664 F   0  0  0  0  0  0  0  0  0  0  0  0
   11.9034   -1.1128   22.4603 C   0  0  0  0  0  0  0  0  0  0  0  0
   10.9855   -0.1656   22.9291 C   0  0  0  0  0  0  0  0  0  0  0  0
    8.6534   -3.7533   23.3658 H   0  0  0  0  0  0  0  0  0  0  0  0
    9.8996   -2.8017   24.1868 H   0  0  0  0  0  0  0  0  0  0  0  0
    8.1915   -2.4285   24.4301 H   0  0  0  0  0  0  0  0  0  0  0  0
    9.6576   -2.1602   21.7498 H   0  0  0  0  0  0  0  0  0  0  0  0
    7.4098   -2.3597   21.0833 H   0  0  0  0  0  0  0  0  0  0  0  0
    6.8002   -1.4823   22.5060 H   0  0  0  0  0  0  0  0  0  0  0  0
    8.0755   -0.7995   18.5199 H   0  0  0  0  0  0  0  0  0  0  0  0
    4.6997    1.1703   17.1784 H   0  0  0  0  0  0  0  0  0  0  0  0
    3.3486    2.5578   18.6735 H   0  0  0  0  0  0  0  0  0  0  0  0
    2.7906    3.3267   20.9596 H   0  0  0  0  0  0  0  0  0  0  0  0
    4.1297    2.5481   22.8970 H   0  0  0  0  0  0  0  0  0  0  0  0
    6.0846    1.1058   22.5600 H   0  0  0  0  0  0  0  0  0  0  0  0
    9.3327   -0.4310   25.0167 H   0  0  0  0  0  0  0  0  0  0  0  0
    7.8514    0.1351   24.2111 H   0  0  0  0  0  0  0  0  0  0  0  0
    7.4304    2.1794   24.9004 H   0  0  0  0  0  0  0  0  0  0  0  0
    8.6325    3.4638   24.7704 H   0  0  0  0  0  0  0  0  0  0  0  0
    8.5607    0.2669   27.2646 H   0  0  0  0  0  0  0  0  0  0  0  0
    9.0724    1.4293   29.7580 H   0  0  0  0  0  0  0  0  0  0  0  0
    8.4136    5.3675   26.5957 H   0  0  0  0  0  0  0  0  0  0  0  0
    9.7007    5.3386   27.8113 H   0  0  0  0  0  0  0  0  0  0  0  0
   10.0424    4.7665   26.1558 H   0  0  0  0  0  0  0  0  0  0  0  0
   13.1891    2.2892   23.7981 H   0  0  0  0  0  0  0  0  0  0  0  0
   14.8156    0.6254   22.7967 H   0  0  0  0  0  0  0  0  0  0  0  0
   11.6108   -2.0964   22.1075 H   0  0  0  0  0  0  0  0  0  0  0  0
  1  2  1  0
  2  3  1  0
  3  4  1  0
  4  5  1  0
  5  6  2  0
  6  7  1  0
  7  8  2  0
  8  9  1  0
  9 10  2  0
 10 11  1  0
 11 12  2  0
 12 13  1  0
 13 14  2  0
  4 15  1  0
 15 16  2  0
 15 17  1  0
 17 18  1  1
 18 19  1  0
 19 20  1  0
 20 21  1  0
 21 22  2  0
 22 23  1  0
 23 24  2  0
 24 25  1  0
 25 26  1  0
 19 27  1  0
 27 28  2  0
 27 29  1  0
 29 30  2  0
 30 31  1  0
 31 32  2  0
 32 33  1  0
 32 34  1  0
 34 35  2  0
 17  2  1  0
 25 21  1  0
 35 29  1  0
 14  5  1  0
 35 17  1  0
 14  9  1  0
  1 36  1  0
  1 37  1  0
  1 38  1  0
  2 39  1  6
  3 40  1  0
  3 41  1  0
  6 42  1  0
  8 43  1  0
 10 44  1  0
 11 45  1  0
 12 46  1  0
 13 47  1  0
 18 48  1  0
 18 49  1  0
 20 50  1  0
 20 51  1  0
 22 52  1  0
 23 53  1  0
 26 54  1  0
 26 55  1  0
 26 56  1  0
 30 57  1  0
 31 58  1  0
 34 59  1  0
M  END
$$$$
