
     RDKit          3D

 55 60  0  0  0  0  0  0  0  0999 V2000
    9.4309   -2.1226   22.4890 C   0  0  0  0  0  0  0  0  0  0  0  0
    8.9793   -0.9257   21.8106 C   0  0  2  0  0  0  0  0  0  0  0  0
    7.5025   -0.8544   21.6391 C   0  0  0  0  0  0  0  0  0  0  0  0
    6.9270    0.4915   21.0970 N   0  0  0  0  0  0  0  0  0  0  0  0
    6.0328    0.1670   20.0587 C   0  0  0  0  0  0  0  0  0  0  0  0
    6.3700   -0.2496   18.7618 C   0  0  0  0  0  0  0  0  0  0  0  0
    5.5281   -0.2635   17.7001 N   0  0  0  0  0  0  0  0  0  0  0  0
    4.3224    0.2378   17.8627 C   0  0  0  0  0  0  0  0  0  0  0  0
    3.8664    0.8222   19.0767 C   0  0  0  0  0  0  0  0  0  0  0  0
    2.6342    1.5190   19.1994 C   0  0  0  0  0  0  0  0  0  0  0  0
    2.2725    2.1012   20.3835 C   0  0  0  0  0  0  0  0  0  0  0  0
    3.1194    2.0275   21.5046 C   0  0  0  0  0  0  0  0  0  0  0  0
    4.3234    1.3760   21.4020 C   0  0  0  0  0  0  0  0  0  0  0  0
    4.7260    0.7637   20.1952 C   0  0  0  0  0  0  0  0  0  0  0  0
    7.9999    1.3833   20.9599 C   0  0  0  0  0  0  0  0  0  0  0  0
    8.3186    2.2215   21.7713 O   0  0  0  0  0  0  0  0  0  0  0  0
    7.4919   -0.8578   21.6403 C   0  0  1  0  0  0  0  0  0  0  0  0
    5.8547   -2.7163   20.8086 C   0  0  0  0  0  0  0  0  0  0  0  0
    6.1478   -3.8339   21.4541 N   0  0  0  0  0  0  0  0  0  0  0  0
    6.0280   -5.2056   20.8658 C   0  0  0  0  0  0  0  0  0  0  0  0
    4.8651   -5.9441   21.4645 C   0  0  0  0  0  0  0  0  0  0  0  0
    3.7942   -5.4844   22.2895 C   0  0  0  0  0  0  0  0  0  0  0  0
    3.0404   -6.5943   22.4502 C   0  0  0  0  0  0  0  0  0  0  0  0
    3.5785   -7.6248   21.7930 O   0  0  0  0  0  0  0  0  0  0  0  0
    4.7314   -7.2112   21.1696 N   0  0  0  0  0  0  0  0  0  0  0  0
    6.5661   -3.8389   22.8066 C   0  0  0  0  0  0  0  0  0  0  0  0
    6.9718   -4.8575   23.3328 O   0  0  0  0  0  0  0  0  0  0  0  0
    6.4493   -2.5542   23.5816 C   0  0  0  0  0  0  0  0  0  0  0  0
    6.0441   -2.6537   24.9135 C   0  0  0  0  0  0  0  0  0  0  0  0
    5.8429   -1.5127   25.6716 C   0  0  0  0  0  0  0  0  0  0  0  0
    6.0837   -0.2654   25.1165 C   0  0  0  0  0  0  0  0  0  0  0  0
    5.8634    0.8185   25.8705 F   0  0  0  0  0  0  0  0  0  0  0  0
    6.5671   -0.1044   23.8116 C   0  0  0  0  0  0  0  0  0  0  0  0
    6.6780   -1.2701   23.0756 C   0  0  0  0  0  0  0  0  0  0  0  0
    9.2517   -2.0524   23.5626 H   0  0  0  0  0  0  0  0  0  0  0  0
    8.9686   -3.0503   22.1328 H   0  0  0  0  0  0  0  0  0  0  0  0
   10.5095   -2.2209   22.3359 H   0  0  0  0  0  0  0  0  0  0  0  0
    8.9989   -0.0065   22.2301 H   0  0  0  0  0  0  0  0  0  0  0  0
    9.0206   -0.5953   20.8500 H   0  0  0  0  0  0  0  0  0  0  0  0
    8.5435    1.2307   20.0063 H   0  0  0  0  0  0  0  0  0  0  0  0
    7.3825   -0.5916   18.5348 H   0  0  0  0  0  0  0  0  0  0  0  0
    3.6535    0.2116   17.0094 H   0  0  0  0  0  0  0  0  0  0  0  0
    2.0096    1.6244   18.3232 H   0  0  0  0  0  0  0  0  0  0  0  0
    1.3330    2.6391   20.4683 H   0  0  0  0  0  0  0  0  0  0  0  0
    2.8378    2.4915   22.4459 H   0  0  0  0  0  0  0  0  0  0  0  0
    4.9925    1.3656   22.2486 H   0  0  0  0  0  0  0  0  0  0  0  0
    5.3041   -1.9176   21.2703 H   0  0  0  0  0  0  0  0  0  0  0  0
    6.1179   -2.5823   19.7774 H   0  0  0  0  0  0  0  0  0  0  0  0
    6.9463   -5.7506   21.0965 H   0  0  0  0  0  0  0  0  0  0  0  0
    5.9058   -5.1555   19.7752 H   0  0  0  0  0  0  0  0  0  0  0  0
    3.6162   -4.4980   22.6891 H   0  0  0  0  0  0  0  0  0  0  0  0
    2.1216   -6.8110   22.9761 H   0  0  0  0  0  0  0  0  0  0  0  0
    5.8770   -3.6366   25.3407 H   0  0  0  0  0  0  0  0  0  0  0  0
    5.4946   -1.5760   26.6991 H   0  0  0  0  0  0  0  0  0  0  0  0
    6.6858    0.8912   23.4030 H   0  0  0  0  0  0  0  0  0  0  0  0
  1  2  1  0
  2  3  1  0
  3  4  1  0
  4  5  1  0
  5  6  2  0
  6  7  1  0
  7  8  2  0
  8  9  1  0
  9 10  2  0
 10 11  1  0
 11 12  2  0
 12 13  1  0
 13 14  2  0
  4 15  1  0
 15 16  2  0
 15 17  1  0
 17 18  1  6
 18 19  1  0
 19 20  1  0
 20 21  1  0
 21 22  1  0
 22 23  2  0
 23 24  1  0
 24 25  1  0
 19 26  1  0
 26 27  2  0
 26 28  1  0
 28 29  2  0
 29 30  1  0
 30 31  2  0
 31 32  1  0
 31 33  1  0
 33 34  2  0
 17  2  1  0
 25 21  2  0
 34 28  1  0
 14  5  1  0
 34 17  1  0
 14  9  1  0
  1 35  1  0
  1 36  1  0
  1 37  1  0
  2 38  1  1
  3 39  1  0
  3 40  1  0
  6 41  1  0
  8 42  1  0
 10 43  1  0
 11 44  1  0
 12 45  1  0
 13 46  1  0
 18 47  1  0
 18 48  1  0
 20 49  1  0
 20 50  1  0
 22 51  1  0
 23 52  1  0
 29 53  1  0
 30 54  1  0
 33 55  1  0
M  END
$$$$
