
     RDKit          3D

 60 65  0  0  0  0  0  0  0  0999 V2000
    5.3371    5.9871   22.1069 C   0  0  0  0  0  0  0  0  0  0  0  0
    6.1561    5.0357   22.9170 C   0  0  0  0  0  0  0  0  0  0  0  0
    7.3609    4.5316   22.4298 C   0  0  0  0  0  0  0  0  0  0  0  0
    8.1318    3.7065   23.1288 N   0  0  0  0  0  0  0  0  0  0  0  0
    7.6585    3.3221   24.3102 C   0  0  0  0  0  0  0  0  0  0  0  0
    8.5226    2.4687   25.1974 C   0  0  0  0  0  0  0  0  0  0  0  0
    9.3761    1.5602   24.4718 N   0  0  0  0  0  0  0  0  0  0  0  0
    8.9149    0.2092   24.2128 C   0  0  0  0  0  0  0  0  0  0  0  0
    9.4824   -0.3444   22.8756 C   0  0  2  0  0  0  0  0  0  0  0  0
    8.8756    0.4524   21.6843 C   0  0  0  0  0  0  0  0  0  0  0  0
    9.2024    1.5509   21.3168 O   0  0  0  0  0  0  0  0  0  0  0  0
    7.8712   -0.3168   21.1114 N   0  0  0  0  0  0  0  0  0  0  0  0
    6.9872    0.1560   20.1012 C   0  0  0  0  0  0  0  0  0  0  0  0
    7.1830   -0.2299   18.7982 C   0  0  0  0  0  0  0  0  0  0  0  0
    6.3611    0.0873   17.7657 N   0  0  0  0  0  0  0  0  0  0  0  0
    5.3209    0.8345   18.0341 C   0  0  0  0  0  0  0  0  0  0  0  0
    5.0141    1.3353   19.3301 C   0  0  0  0  0  0  0  0  0  0  0  0
    3.9207    2.2134   19.5433 C   0  0  0  0  0  0  0  0  0  0  0  0
    3.6185    2.6445   20.8023 C   0  0  0  0  0  0  0  0  0  0  0  0
    4.3947    2.2260   21.9115 C   0  0  0  0  0  0  0  0  0  0  0  0
    5.4952    1.4257   21.7219 C   0  0  0  0  0  0  0  0  0  0  0  0
    5.8447    0.9688   20.4180 C   0  0  0  0  0  0  0  0  0  0  0  0
    7.6340   -1.5614   21.8163 C   0  0  0  0  0  0  0  0  0  0  0  0
    8.9747   -1.7680   22.5346 C   0  0  2  0  0  0  0  0  0  0  0  0
    8.9311   -2.7611   23.6853 C   0  0  0  0  0  0  0  0  0  0  0  0
   10.9957   -0.1980   22.9709 C   0  0  0  0  0  0  0  0  0  0  0  0
   11.9166   -1.1550   22.5164 C   0  0  0  0  0  0  0  0  0  0  0  0
   13.2613   -0.8298   22.4797 C   0  0  0  0  0  0  0  0  0  0  0  0
   14.1315   -1.7256   21.9828 F   0  0  0  0  0  0  0  0  0  0  0  0
   13.7680    0.3925   22.9127 C   0  0  0  0  0  0  0  0  0  0  0  0
   12.8718    1.3045   23.4276 C   0  0  0  0  0  0  0  0  0  0  0  0
   11.5149    0.9957   23.4938 C   0  0  0  0  0  0  0  0  0  0  0  0
   10.6199    2.0066   24.1305 C   0  0  0  0  0  0  0  0  0  0  0  0
   10.9912    3.1593   24.3244 O   0  0  0  0  0  0  0  0  0  0  0  0
    6.4249    3.7683   24.7668 C   0  0  0  0  0  0  0  0  0  0  0  0
    5.6774    4.6409   24.1024 N   0  0  0  0  0  0  0  0  0  0  0  0
    5.8348    6.9553   21.9859 H   0  0  0  0  0  0  0  0  0  0  0  0
    4.3643    6.1245   22.5806 H   0  0  0  0  0  0  0  0  0  0  0  0
    5.1994    5.5674   21.1093 H   0  0  0  0  0  0  0  0  0  0  0  0
    7.7080    4.8236   21.4407 H   0  0  0  0  0  0  0  0  0  0  0  0
    7.8889    1.9174   25.9012 H   0  0  0  0  0  0  0  0  0  0  0  0
    9.1782    3.1263   25.7734 H   0  0  0  0  0  0  0  0  0  0  0  0
    7.8191    0.2196   24.1948 H   0  0  0  0  0  0  0  0  0  0  0  0
    9.2405   -0.4565   25.0239 H   0  0  0  0  0  0  0  0  0  0  0  0
    8.0558   -0.8303   18.5414 H   0  0  0  0  0  0  0  0  0  0  0  0
    4.6479    1.0831   17.2120 H   0  0  0  0  0  0  0  0  0  0  0  0
    3.3382    2.5272   18.6801 H   0  0  0  0  0  0  0  0  0  0  0  0
    2.7774    3.3144   20.9529 H   0  0  0  0  0  0  0  0  0  0  0  0
    4.1167    2.5444   22.9113 H   0  0  0  0  0  0  0  0  0  0  0  0
    6.1047    1.1350   22.5749 H   0  0  0  0  0  0  0  0  0  0  0  0
    6.7839   -1.4811   22.5203 H   0  0  0  0  0  0  0  0  0  0  0  0
    7.3996   -2.3560   21.0985 H   0  0  0  0  0  0  0  0  0  0  0  0
    9.6513   -2.1326   21.7510 H   0  0  0  0  0  0  0  0  0  0  0  0
    8.6622   -3.7670   23.3446 H   0  0  0  0  0  0  0  0  0  0  0  0
    9.9074   -2.8094   24.1774 H   0  0  0  0  0  0  0  0  0  0  0  0
    8.1908   -2.4550   24.4334 H   0  0  0  0  0  0  0  0  0  0  0  0
   11.6349   -2.1576   22.2004 H   0  0  0  0  0  0  0  0  0  0  0  0
   14.8328    0.5905   22.8406 H   0  0  0  0  0  0  0  0  0  0  0  0
   13.1868    2.2818   23.7749 H   0  0  0  0  0  0  0  0  0  0  0  0
    6.0315    3.4019   25.7098 H   0  0  0  0  0  0  0  0  0  0  0  0
  1  2  1  0
  2  3  2  0
  3  4  1  0
  4  5  2  0
  5  6  1  0
  6  7  1  0
  7  8  1  0
  9  8  1  1
  9 10  1  0
 10 11  2  0
 10 12  1  0
 12 13  1  0
 13 14  2  0
 14 15  1  0
 15 16  2  0
 16 17  1  0
 17 18  2  0
 18 19  1  0
 19 20  2  0
 20 21  1  0
 21 22  2  0
 12 23  1  0
 23 24  1  0
 24 25  1  0
  9 26  1  0
 26 27  2  0
 27 28  1  0
 28 29  1  0
 28 30  2  0
 30 31  1  0
 31 32  2  0
 32 33  1  0
 33 34  2  0
  5 35  1  0
 35 36  2  0
 36  2  1  0
 33  7  1  0
 24  9  1  0
 32 26  1  0
 22 13  1  0
 22 17  1  0
  1 37  1  0
  1 38  1  0
  1 39  1  0
  3 40  1  0
  6 41  1  0
  6 42  1  0
  8 43  1  0
  8 44  1  0
 14 45  1  0
 16 46  1  0
 18 47  1  0
 19 48  1  0
 20 49  1  0
 21 50  1  0
 23 51  1  0
 23 52  1  0
 24 53  1  6
 25 54  1  0
 25 55  1  0
 25 56  1  0
 27 57  1  0
 30 58  1  0
 31 59  1  0
 35 60  1  0
M  END
$$$$
