
     RDKit          3D

 63 67  0  0  0  0  0  0  0  0999 V2000
   10.3092   -4.8189   29.5353 C   0  0  0  0  0  0  0  0  0  0  0  0
    9.7291   -4.4018   28.4192 C   0  0  0  0  0  0  0  0  0  0  0  0
   10.4081   -4.5092   27.0992 C   0  0  0  0  0  0  0  0  0  0  0  0
   10.9043   -5.5291   26.6880 O   0  0  0  0  0  0  0  0  0  0  0  0
   10.5206   -3.2811   26.3790 N   0  0  0  0  0  0  0  0  0  0  0  0
   11.3673   -2.2587   26.9947 C   0  0  0  0  0  0  0  0  0  0  0  0
   11.8555   -1.2368   25.9583 C   0  0  0  0  0  0  0  0  0  0  0  0
   11.0957   -1.2983   24.6422 C   0  0  0  0  0  0  0  0  0  0  0  0
    9.6680   -1.7357   24.7859 C   0  0  0  0  0  0  0  0  0  0  0  0
    9.4383   -2.8435   25.6040 C   0  0  0  0  0  0  0  0  0  0  0  0
    8.2044   -3.4979   25.5684 C   0  0  0  0  0  0  0  0  0  0  0  0
    7.1663   -2.9501   24.8284 C   0  0  0  0  0  0  0  0  0  0  0  0
    7.3603   -1.7930   24.0804 C   0  0  0  0  0  0  0  0  0  0  0  0
    8.6247   -1.2072   24.0102 C   0  0  0  0  0  0  0  0  0  0  0  0
    8.9093   -0.0812   23.1985 N   0  0  2  0  0  0  0  0  0  0  0  0
   10.3429    2.1469   23.7539 C   0  0  0  0  0  0  0  0  0  0  0  0
   11.7018    1.9504   23.2137 C   0  0  0  0  0  0  0  0  0  0  0  0
   12.6476    2.9597   23.4030 C   0  0  0  0  0  0  0  0  0  0  0  0
   14.0017    2.6896   23.2720 C   0  0  0  0  0  0  0  0  0  0  0  0
   14.4496    1.4089   22.9730 C   0  0  0  0  0  0  0  0  0  0  0  0
   13.4980    0.4431   22.6929 C   0  0  0  0  0  0  0  0  0  0  0  0
   14.0321   -1.1979   22.4483 Cl  0  0  0  0  0  0  0  0  0  0  0  0
   12.1467    0.7493   22.6471 C   0  0  0  0  0  0  0  0  0  0  0  0
    8.5599    0.1766   21.8960 C   0  0  0  0  0  0  0  0  0  0  0  0
    8.8423    1.2440   21.3807 O   0  0  0  0  0  0  0  0  0  0  0  0
    7.9031   -0.9043   21.0586 C   0  0  0  0  0  0  0  0  0  0  0  0
    6.9678   -0.3164   20.0348 C   0  0  0  0  0  0  0  0  0  0  0  0
    7.1593   -0.6156   18.7129 C   0  0  0  0  0  0  0  0  0  0  0  0
    6.4049   -0.1578   17.6867 N   0  0  0  0  0  0  0  0  0  0  0  0
    5.4185    0.6482   17.9868 C   0  0  0  0  0  0  0  0  0  0  0  0
    5.1099    1.0612   19.3092 C   0  0  0  0  0  0  0  0  0  0  0  0
    4.0581    1.9759   19.5655 C   0  0  0  0  0  0  0  0  0  0  0  0
    3.7455    2.3352   20.8470 C   0  0  0  0  0  0  0  0  0  0  0  0
    4.4896    1.8001   21.9237 C   0  0  0  0  0  0  0  0  0  0  0  0
    5.5385    0.9436   21.7020 C   0  0  0  0  0  0  0  0  0  0  0  0
    5.8911    0.5542   20.3763 C   0  0  0  0  0  0  0  0  0  0  0  0
   11.2704   -5.3279   29.5257 H   0  0  0  0  0  0  0  0  0  0  0  0
    9.8164   -4.7042   30.4975 H   0  0  0  0  0  0  0  0  0  0  0  0
    8.7586   -3.9092   28.4470 H   0  0  0  0  0  0  0  0  0  0  0  0
   12.2113   -2.7735   27.4630 H   0  0  0  0  0  0  0  0  0  0  0  0
   10.8136   -1.7491   27.7964 H   0  0  0  0  0  0  0  0  0  0  0  0
   12.9248   -1.3616   25.7646 H   0  0  0  0  0  0  0  0  0  0  0  0
   11.7073   -0.2273   26.3463 H   0  0  0  0  0  0  0  0  0  0  0  0
   11.1233   -0.2964   24.2408 H   0  0  0  0  0  0  0  0  0  0  0  0
   11.6118   -1.9764   23.9466 H   0  0  0  0  0  0  0  0  0  0  0  0
    8.0497   -4.4291   26.1000 H   0  0  0  0  0  0  0  0  0  0  0  0
    6.2020   -3.4507   24.8091 H   0  0  0  0  0  0  0  0  0  0  0  0
    6.5183   -1.3801   23.5282 H   0  0  0  0  0  0  0  0  0  0  0  0
    9.5595    0.6605   23.5435 H   0  0  0  0  0  0  0  0  0  0  0  0
   10.2575    2.1074   24.8389 H   0  0  0  0  0  0  0  0  0  0  0  0
    9.7434    2.9373   23.3072 H   0  0  0  0  0  0  0  0  0  0  0  0
   12.3194    3.9582   23.6762 H   0  0  0  0  0  0  0  0  0  0  0  0
   14.7079    3.4905   23.4466 H   0  0  0  0  0  0  0  0  0  0  0  0
   15.4978    1.1368   22.9267 H   0  0  0  0  0  0  0  0  0  0  0  0
   11.4429    0.0266   22.2485 H   0  0  0  0  0  0  0  0  0  0  0  0
    8.7276   -1.3995   20.5326 H   0  0  0  0  0  0  0  0  0  0  0  0
    7.4299   -1.6893   21.6507 H   0  0  0  0  0  0  0  0  0  0  0  0
    7.9785   -1.2732   18.4204 H   0  0  0  0  0  0  0  0  0  0  0  0
    4.8148    1.0228   17.1593 H   0  0  0  0  0  0  0  0  0  0  0  0
    3.5170    2.3868   18.7171 H   0  0  0  0  0  0  0  0  0  0  0  0
    2.9389    3.0368   21.0421 H   0  0  0  0  0  0  0  0  0  0  0  0
    4.2317    2.0828   22.9396 H   0  0  0  0  0  0  0  0  0  0  0  0
    6.1156    0.5847   22.5499 H   0  0  0  0  0  0  0  0  0  0  0  0
  1  2  2  0
  2  3  1  0
  3  4  2  0
  3  5  1  0
  5  6  1  0
  6  7  1  0
  7  8  1  0
  8  9  1  0
  9 10  2  0
 10 11  1  0
 11 12  2  0
 12 13  1  0
 13 14  2  0
 14 15  1  0
 15 16  1  0
 16 17  1  0
 17 18  2  0
 18 19  1  0
 19 20  2  0
 20 21  1  0
 21 22  1  0
 21 23  2  0
 15 24  1  0
 24 25  2  0
 24 26  1  0
 26 27  1  0
 27 28  2  0
 28 29  1  0
 29 30  2  0
 30 31  1  0
 31 32  2  0
 32 33  1  0
 33 34  2  0
 34 35  1  0
 35 36  2  0
 10  5  1  0
 23 17  1  0
 36 27  1  0
 14  9  1  0
 36 31  1  0
  1 37  1  0
  1 38  1  0
  2 39  1  0
  6 40  1  0
  6 41  1  0
  7 42  1  0
  7 43  1  0
  8 44  1  0
  8 45  1  0
 11 46  1  0
 12 47  1  0
 13 48  1  0
 15 49  1  1
 16 50  1  0
 16 51  1  0
 18 52  1  0
 19 53  1  0
 20 54  1  0
 23 55  1  0
 26 56  1  0
 26 57  1  0
 28 58  1  0
 30 59  1  0
 32 60  1  0
 33 61  1  0
 34 62  1  0
 35 63  1  0
M  CHG  1  15   1
M  END
$$$$
