
     RDKit          3D

 60 65  0  0  0  0  0  0  0  0999 V2000
   -6.8314    3.4357  -22.3940 C   0  0  0  0  0  0  0  0  0  0  0  0
   -7.5955    2.5764  -23.2749 N   0  0  0  0  0  0  0  0  0  0  0  0
   -7.2151    2.3821  -24.5510 C   0  0  0  0  0  0  0  0  0  0  0  0
   -6.3418    3.0472  -25.0980 O   0  0  0  0  0  0  0  0  0  0  0  0
   -7.8832    1.2696  -25.3447 C   0  0  0  0  0  0  0  0  0  0  0  0
   -8.7737    0.3682  -24.6923 N   0  0  0  0  0  0  0  0  0  0  0  0
   -8.2930   -0.9581  -24.3427 C   0  0  0  0  0  0  0  0  0  0  0  0
   -8.9181   -1.4637  -23.0180 C   0  0  2  0  0  0  0  0  0  0  0  0
   -8.3569   -0.6163  -21.8491 C   0  0  0  0  0  0  0  0  0  0  0  0
   -8.6842    0.5204  -21.5622 O   0  0  0  0  0  0  0  0  0  0  0  0
   -7.3979   -1.3499  -21.1912 N   0  0  0  0  0  0  0  0  0  0  0  0
   -6.5515   -0.8243  -20.1774 C   0  0  0  0  0  0  0  0  0  0  0  0
   -6.8044   -1.1221  -18.8624 C   0  0  0  0  0  0  0  0  0  0  0  0
   -6.0497   -0.6948  -17.8205 N   0  0  0  0  0  0  0  0  0  0  0  0
   -5.0241    0.0789  -18.0818 C   0  0  0  0  0  0  0  0  0  0  0  0
   -4.6599    0.4830  -19.4002 C   0  0  0  0  0  0  0  0  0  0  0  0
   -3.5684    1.3573  -19.6484 C   0  0  0  0  0  0  0  0  0  0  0  0
   -3.1837    1.6522  -20.9255 C   0  0  0  0  0  0  0  0  0  0  0  0
   -3.8768    1.0923  -22.0221 C   0  0  0  0  0  0  0  0  0  0  0  0
   -4.9680    0.2852  -21.8100 C   0  0  0  0  0  0  0  0  0  0  0  0
   -5.4077   -0.0237  -20.4914 C   0  0  0  0  0  0  0  0  0  0  0  0
   -7.1071   -2.6115  -21.8421 C   0  0  0  0  0  0  0  0  0  0  0  0
   -8.4058   -2.8721  -22.6159 C   0  0  2  0  0  0  0  0  0  0  0  0
   -8.3022   -3.8944  -23.7422 C   0  0  0  0  0  0  0  0  0  0  0  0
  -10.4237   -1.3260  -23.1523 C   0  0  0  0  0  0  0  0  0  0  0  0
  -11.3319   -2.2318  -22.5946 C   0  0  0  0  0  0  0  0  0  0  0  0
  -12.6898   -1.9679  -22.6255 C   0  0  0  0  0  0  0  0  0  0  0  0
  -13.7722   -3.0567  -21.7984 Cl  0  0  0  0  0  0  0  0  0  0  0  0
  -13.2065   -0.8308  -23.2464 C   0  0  0  0  0  0  0  0  0  0  0  0
  -12.3194    0.0511  -23.8347 C   0  0  0  0  0  0  0  0  0  0  0  0
  -10.9460   -0.1902  -23.7883 C   0  0  0  0  0  0  0  0  0  0  0  0
  -10.0314    0.8252  -24.3845 C   0  0  0  0  0  0  0  0  0  0  0  0
  -10.3571    1.9905  -24.5660 O   0  0  0  0  0  0  0  0  0  0  0  0
   -6.9688    0.7204  -26.4116 C   0  0  0  0  0  0  0  0  0  0  0  0
   -8.1008    1.6029  -26.8021 C   0  0  0  0  0  0  0  0  0  0  0  0
   -7.3106    3.3974  -21.4123 H   0  0  0  0  0  0  0  0  0  0  0  0
   -5.7932    3.0907  -22.2876 H   0  0  0  0  0  0  0  0  0  0  0  0
   -6.8191    4.4745  -22.7399 H   0  0  0  0  0  0  0  0  0  0  0  0
   -8.2709    1.9672  -22.8280 H   0  0  0  0  0  0  0  0  0  0  0  0
   -8.5351   -1.6609  -25.1503 H   0  0  0  0  0  0  0  0  0  0  0  0
   -7.2049   -0.9033  -24.2393 H   0  0  0  0  0  0  0  0  0  0  0  0
   -7.6828   -1.7085  -18.5961 H   0  0  0  0  0  0  0  0  0  0  0  0
   -4.4412    0.4482  -17.2351 H   0  0  0  0  0  0  0  0  0  0  0  0
   -3.0563    1.7917  -18.7960 H   0  0  0  0  0  0  0  0  0  0  0  0
   -2.3523    2.3267  -21.1103 H   0  0  0  0  0  0  0  0  0  0  0  0
   -3.5580    1.3221  -23.0348 H   0  0  0  0  0  0  0  0  0  0  0  0
   -5.4996   -0.1240  -22.6639 H   0  0  0  0  0  0  0  0  0  0  0  0
   -6.2382   -2.5268  -22.5166 H   0  0  0  0  0  0  0  0  0  0  0  0
   -6.8689   -3.3776  -21.0976 H   0  0  0  0  0  0  0  0  0  0  0  0
   -9.1128   -3.2334  -21.8640 H   0  0  0  0  0  0  0  0  0  0  0  0
   -7.5156   -3.6258  -24.4579 H   0  0  0  0  0  0  0  0  0  0  0  0
   -9.2469   -3.9580  -24.2954 H   0  0  0  0  0  0  0  0  0  0  0  0
   -8.0658   -4.8959  -23.3678 H   0  0  0  0  0  0  0  0  0  0  0  0
  -10.9975   -3.1228  -22.0767 H   0  0  0  0  0  0  0  0  0  0  0  0
  -14.2768   -0.6452  -23.2260 H   0  0  0  0  0  0  0  0  0  0  0  0
  -12.6741    0.9469  -24.3352 H   0  0  0  0  0  0  0  0  0  0  0  0
   -7.0520   -0.3439  -26.6075 H   0  0  0  0  0  0  0  0  0  0  0  0
   -5.9722    1.1397  -26.4110 H   0  0  0  0  0  0  0  0  0  0  0  0
   -8.9308    1.1389  -27.3184 H   0  0  0  0  0  0  0  0  0  0  0  0
   -7.9054    2.6377  -27.0542 H   0  0  0  0  0  0  0  0  0  0  0  0
  1  2  1  0
  2  3  1  0
  3  4  2  0
  3  5  1  0
  5  6  1  0
  6  7  1  0
  8  7  1  6
  8  9  1  0
  9 10  2  0
  9 11  1  0
 11 12  1  0
 12 13  2  0
 13 14  1  0
 14 15  2  0
 15 16  1  0
 16 17  2  0
 17 18  1  0
 18 19  2  0
 19 20  1  0
 20 21  2  0
 11 22  1  0
 22 23  1  0
 23 24  1  0
  8 25  1  0
 25 26  2  0
 26 27  1  0
 27 28  1  0
 27 29  2  0
 29 30  1  0
 30 31  2  0
 31 32  1  0
 32 33  2  0
  5 34  1  0
 34 35  1  0
 35  5  1  0
 32  6  1  0
 23  8  1  0
 31 25  1  0
 21 12  1  0
 21 16  1  0
  1 36  1  0
  1 37  1  0
  1 38  1  0
  2 39  1  0
  7 40  1  0
  7 41  1  0
 13 42  1  0
 15 43  1  0
 17 44  1  0
 18 45  1  0
 19 46  1  0
 20 47  1  0
 22 48  1  0
 22 49  1  0
 23 50  1  1
 24 51  1  0
 24 52  1  0
 24 53  1  0
 26 54  1  0
 29 55  1  0
 30 56  1  0
 34 57  1  0
 34 58  1  0
 35 59  1  0
 35 60  1  0
M  END
