mobile
  PyMOL3.1          3D                             0

 57 62  0  0  0  0  0  0  0  0999 V2000
  -10.4907    1.8863  -24.7912 O   0  0  0  0  0  0  0  0  0  0  0  0
  -10.0843    0.7929  -24.4336 C   0  0  0  0  0  0  0  0  0  0  0  0
   -8.7917    0.4125  -24.6501 N   0  0  0  0  0  0  0  0  0  0  0  0
   -7.8187    1.3056  -25.3435 C   0  0  0  0  0  0  0  0  0  0  0  0
   -7.0127    0.6919  -26.4571 C   0  0  0  0  0  0  0  0  0  0  0  0
   -8.1231    1.6334  -26.7817 C   0  0  0  0  0  0  0  0  0  0  0  0
   -7.1272    2.3876  -24.5530 C   0  0  0  0  0  0  0  0  0  0  0  0
   -6.2527    3.0376  -25.1103 O   0  0  0  0  0  0  0  0  0  0  0  0
   -7.4859    2.5756  -23.2878 N   0  0  0  0  0  0  0  0  0  0  0  0
   -6.8158    3.5549  -22.4499 C   0  0  0  0  0  0  0  0  0  0  0  0
  -10.9719   -0.1754  -23.7609 C   0  0  0  0  0  0  0  0  0  0  0  0
  -12.3511    0.0290  -23.8043 C   0  0  0  0  0  0  0  0  0  0  0  0
  -13.2110   -0.8718  -23.1992 C   0  0  0  0  0  0  0  0  0  0  0  0
  -12.6855   -1.9739  -22.5557 C   0  0  0  0  0  0  0  0  0  0  0  0
  -13.7624   -3.0643  -21.7260 Cl  0  0  0  0  0  0  0  0  0  0  0  0
  -11.3264   -2.2147  -22.5091 C   0  0  0  0  0  0  0  0  0  0  0  0
  -10.4561   -1.3024  -23.1021 C   0  0  0  0  0  0  0  0  0  0  0  0
   -8.9450   -1.4478  -22.9788 C   0  0  0  0  0  0  0  0  0  0  0  0
   -8.2963   -0.9146  -24.2823 C   0  0  0  0  0  0  0  0  0  0  0  0
   -8.4001   -0.6188  -21.8129 C   0  0  0  0  0  0  0  0  0  0  0  0
   -8.7890    0.4838  -21.4710 O   0  0  0  0  0  0  0  0  0  0  0  0
   -7.3687   -1.3059  -21.2455 N   0  0  0  0  0  0  0  0  0  0  0  0
   -7.1460   -2.6184  -21.8785 C   0  0  0  0  0  0  0  0  0  0  0  0
   -8.4537   -2.8723  -22.6284 C   0  0  0  0  0  0  0  0  0  0  0  0
   -6.5483   -0.8236  -20.1743 C   0  0  0  0  0  0  0  0  0  0  0  0
   -5.4200   -0.0022  -20.4709 C   0  0  0  0  0  0  0  0  0  0  0  0
   -4.9895    0.3200  -21.7865 C   0  0  0  0  0  0  0  0  0  0  0  0
   -3.9098    1.1327  -21.9970 C   0  0  0  0  0  0  0  0  0  0  0  0
   -3.2070    1.6681  -20.9214 C   0  0  0  0  0  0  0  0  0  0  0  0
   -3.5839    1.3896  -19.6393 C   0  0  0  0  0  0  0  0  0  0  0  0
   -4.6909    0.5451  -19.3759 C   0  0  0  0  0  0  0  0  0  0  0  0
   -5.1273    0.2217  -18.0613 C   0  0  0  0  0  0  0  0  0  0  0  0
   -6.1785   -0.5432  -17.7911 N   0  0  0  0  0  0  0  0  0  0  0  0
   -6.8568   -1.0492  -18.8326 C   0  0  0  0  0  0  0  0  0  0  0  0
   -5.9678    1.0014  -26.6124 H   0  0  0  0  0  0  0  0  0  0  0  0
   -7.1164   -0.3786  -26.6845 H   0  0  0  0  0  0  0  0  0  0  0  0
   -7.8959    2.6347  -27.1756 H   0  0  0  0  0  0  0  0  0  0  0  0
   -9.0445    1.2547  -27.2477 H   0  0  0  0  0  0  0  0  0  0  0  0
   -8.2324    2.0319  -22.9037 H   0  0  0  0  0  0  0  0  0  0  0  0
   -7.2657    3.5486  -21.4464 H   0  0  0  0  0  0  0  0  0  0  0  0
   -5.7481    3.3030  -22.3746 H   0  0  0  0  0  0  0  0  0  0  0  0
   -6.9266    4.5544  -22.8953 H   0  0  0  0  0  0  0  0  0  0  0  0
  -12.7501    0.8937  -24.3137 H   0  0  0  0  0  0  0  0  0  0  0  0
  -14.2791   -0.7141  -23.2298 H   0  0  0  0  0  0  0  0  0  0  0  0
  -10.9434   -3.0992  -22.0207 H   0  0  0  0  0  0  0  0  0  0  0  0
   -7.2074   -0.8565  -24.1370 H   0  0  0  0  0  0  0  0  0  0  0  0
   -8.5201   -1.6148  -25.1012 H   0  0  0  0  0  0  0  0  0  0  0  0
   -6.2943   -2.5819  -22.5734 H   0  0  0  0  0  0  0  0  0  0  0  0
   -6.9688   -3.3963  -21.1214 H   0  0  0  0  0  0  0  0  0  0  0  0
   -8.2781   -3.4638  -23.5394 H   0  0  0  0  0  0  0  0  0  0  0  0
   -9.1803   -3.3928  -21.9881 H   0  0  0  0  0  0  0  0  0  0  0  0
   -5.5226   -0.0846  -22.6346 H   0  0  0  0  0  0  0  0  0  0  0  0
   -3.5997    1.3615  -23.0055 H   0  0  0  0  0  0  0  0  0  0  0  0
   -2.3576    2.3102  -21.1019 H   0  0  0  0  0  0  0  0  0  0  0  0
   -3.0308    1.8173  -18.8152 H   0  0  0  0  0  0  0  0  0  0  0  0
   -4.5667    0.6237  -17.2306 H   0  0  0  0  0  0  0  0  0  0  0  0
   -7.7064   -1.6787  -18.6143 H   0  0  0  0  0  0  0  0  0  0  0  0
  1  2  2  0  0  0  0
  2  3  1  0  0  0  0
  2 11  1  0  0  0  0
  3  4  1  0  0  0  0
  3 19  1  0  0  0  0
  4  5  1  0  0  0  0
  4  6  1  0  0  0  0
  4  7  1  0  0  0  0
  5  6  1  0  0  0  0
  5 35  1  0  0  0  0
  5 36  1  0  0  0  0
  6 37  1  0  0  0  0
  6 38  1  0  0  0  0
  7  8  2  0  0  0  0
  7  9  1  0  0  0  0
  9 10  1  0  0  0  0
  9 39  1  0  0  0  0
 10 40  1  0  0  0  0
 10 41  1  0  0  0  0
 10 42  1  0  0  0  0
 11 12  4  0  0  0  0
 11 17  4  0  0  0  0
 12 13  4  0  0  0  0
 12 43  1  0  0  0  0
 13 14  4  0  0  0  0
 13 44  1  0  0  0  0
 14 15  1  0  0  0  0
 14 16  4  0  0  0  0
 16 17  4  0  0  0  0
 16 45  1  0  0  0  0
 17 18  1  0  0  0  0
 18 19  1  0  0  0  0
 18 20  1  0  0  0  0
 18 24  1  0  0  0  0
 19 46  1  0  0  0  0
 19 47  1  0  0  0  0
 20 21  2  0  0  0  0
 20 22  1  0  0  0  0
 22 23  1  0  0  0  0
 22 25  1  0  0  0  0
 23 24  1  0  0  0  0
 23 48  1  0  0  0  0
 23 49  1  0  0  0  0
 24 50  1  0  0  0  0
 24 51  1  0  0  0  0
 25 26  4  0  0  0  0
 25 34  4  0  0  0  0
 26 27  4  0  0  0  0
 26 31  4  0  0  0  0
 27 28  4  0  0  0  0
 27 52  1  0  0  0  0
 28 29  4  0  0  0  0
 28 53  1  0  0  0  0
 29 30  4  0  0  0  0
 29 54  1  0  0  0  0
 30 31  4  0  0  0  0
 30 55  1  0  0  0  0
 31 32  4  0  0  0  0
 32 33  4  0  0  0  0
 32 56  1  0  0  0  0
 33 34  4  0  0  0  0
 34 57  1  0  0  0  0
M  END
$$$$
