
     RDKit          3D

 60 65  0  0  0  0  0  0  0  0999 V2000
    7.1025    4.4937   22.2336 C   0  0  0  0  0  0  0  0  0  0  0  0
    7.8952    3.6618   23.1156 N   0  0  0  0  0  0  0  0  0  0  0  0
    7.5366    3.4789   24.3997 C   0  0  0  0  0  0  0  0  0  0  0  0
    6.6586    4.1353   24.9497 O   0  0  0  0  0  0  0  0  0  0  0  0
    8.2368    2.3908   25.1995 C   0  0  0  0  0  0  0  0  0  0  0  0
    9.1350    1.4970   24.5472 N   0  0  0  0  0  0  0  0  0  0  0  0
    8.6748    0.1569   24.2235 C   0  0  0  0  0  0  0  0  0  0  0  0
    9.2907   -0.3560   22.8973 C   0  0  2  0  0  0  0  0  0  0  0  0
    8.6970    0.4637   21.7246 C   0  0  0  0  0  0  0  0  0  0  0  0
    8.9986    1.6021   21.4169 O   0  0  0  0  0  0  0  0  0  0  0  0
    7.7430   -0.2973   21.0911 N   0  0  0  0  0  0  0  0  0  0  0  0
    6.8725    0.1975   20.0822 C   0  0  0  0  0  0  0  0  0  0  0  0
    7.1125   -0.1145   18.7680 C   0  0  0  0  0  0  0  0  0  0  0  0
    6.3352    0.2833   17.7311 N   0  0  0  0  0  0  0  0  0  0  0  0
    5.2988    1.0413   17.9961 C   0  0  0  0  0  0  0  0  0  0  0  0
    4.9456    1.4576   19.3137 C   0  0  0  0  0  0  0  0  0  0  0  0
    3.8413    2.3147   19.5651 C   0  0  0  0  0  0  0  0  0  0  0  0
    3.4691    2.6208   20.8432 C   0  0  0  0  0  0  0  0  0  0  0  0
    4.1881    2.0900   21.9376 C   0  0  0  0  0  0  0  0  0  0  0  0
    5.2914    1.3006   21.7214 C   0  0  0  0  0  0  0  0  0  0  0  0
    5.7182    0.9809   20.4011 C   0  0  0  0  0  0  0  0  0  0  0  0
    7.4854   -1.5546   21.7640 C   0  0  0  0  0  0  0  0  0  0  0  0
    8.7996   -1.7794   22.5227 C   0  0  2  0  0  0  0  0  0  0  0  0
    8.7314   -2.7871   23.6648 C   0  0  0  0  0  0  0  0  0  0  0  0
   10.7951   -0.1880   23.0080 C   0  0  0  0  0  0  0  0  0  0  0  0
   11.7124   -1.0846   22.4502 C   0  0  0  0  0  0  0  0  0  0  0  0
   13.0654   -0.7947   22.4579 C   0  0  0  0  0  0  0  0  0  0  0  0
   14.1565   -1.8748   21.6309 Cl  0  0  0  0  0  0  0  0  0  0  0  0
   13.5690    0.3608   23.0550 C   0  0  0  0  0  0  0  0  0  0  0  0
   12.6737    1.2343   23.6434 C   0  0  0  0  0  0  0  0  0  0  0  0
   11.3046    0.9665   23.6202 C   0  0  0  0  0  0  0  0  0  0  0  0
   10.3793    1.9731   24.2149 C   0  0  0  0  0  0  0  0  0  0  0  0
   10.6853    3.1468   24.3751 O   0  0  0  0  0  0  0  0  0  0  0  0
    7.3482    1.8401   26.2871 C   0  0  0  0  0  0  0  0  0  0  0  0
    8.4686    2.7493   26.6487 C   0  0  0  0  0  0  0  0  0  0  0  0
    7.5685    4.4502   21.2458 H   0  0  0  0  0  0  0  0  0  0  0  0
    6.0697    4.1277   22.1471 H   0  0  0  0  0  0  0  0  0  0  0  0
    7.0753    5.5370   22.5649 H   0  0  0  0  0  0  0  0  0  0  0  0
    8.5757    3.0590   22.6678 H   0  0  0  0  0  0  0  0  0  0  0  0
    8.9416   -0.5294   25.0375 H   0  0  0  0  0  0  0  0  0  0  0  0
    7.5845    0.1897   24.1350 H   0  0  0  0  0  0  0  0  0  0  0  0
    7.9980   -0.6881   18.4975 H   0  0  0  0  0  0  0  0  0  0  0  0
    4.6971    1.3872   17.1527 H   0  0  0  0  0  0  0  0  0  0  0  0
    3.3091    2.7269   18.7140 H   0  0  0  0  0  0  0  0  0  0  0  0
    2.6277    3.2821   21.0303 H   0  0  0  0  0  0  0  0  0  0  0  0
    3.8793    2.3284   22.9514 H   0  0  0  0  0  0  0  0  0  0  0  0
    5.8426    0.9139   22.5733 H   0  0  0  0  0  0  0  0  0  0  0  0
    6.6247   -1.4765   22.4496 H   0  0  0  0  0  0  0  0  0  0  0  0
    7.2514   -2.3358   21.0340 H   0  0  0  0  0  0  0  0  0  0  0  0
    9.5027   -2.1382   21.7659 H   0  0  0  0  0  0  0  0  0  0  0  0
    7.9500   -2.5230   24.3878 H   0  0  0  0  0  0  0  0  0  0  0  0
    9.6848   -2.8248   24.2052 H   0  0  0  0  0  0  0  0  0  0  0  0
    8.5088   -3.7982   23.3081 H   0  0  0  0  0  0  0  0  0  0  0  0
   11.3878   -1.9891   21.9499 H   0  0  0  0  0  0  0  0  0  0  0  0
   14.6352    0.5662   23.0166 H   0  0  0  0  0  0  0  0  0  0  0  0
   13.0183    2.1438   24.1260 H   0  0  0  0  0  0  0  0  0  0  0  0
    7.4544    0.7805   26.4969 H   0  0  0  0  0  0  0  0  0  0  0  0
    6.3439    2.2405   26.2948 H   0  0  0  0  0  0  0  0  0  0  0  0
    9.3144    2.3085   27.1596 H   0  0  0  0  0  0  0  0  0  0  0  0
    8.2571    3.7838   26.8888 H   0  0  0  0  0  0  0  0  0  0  0  0
  1  2  1  0
  2  3  1  0
  3  4  2  0
  3  5  1  0
  5  6  1  0
  6  7  1  0
  8  7  1  1
  8  9  1  0
  9 10  2  0
  9 11  1  0
 11 12  1  0
 12 13  2  0
 13 14  1  0
 14 15  2  0
 15 16  1  0
 16 17  2  0
 17 18  1  0
 18 19  2  0
 19 20  1  0
 20 21  2  0
 11 22  1  0
 22 23  1  0
 23 24  1  0
  8 25  1  0
 25 26  2  0
 26 27  1  0
 27 28  1  0
 27 29  2  0
 29 30  1  0
 30 31  2  0
 31 32  1  0
 32 33  2  0
  5 34  1  0
 34 35  1  0
 35  5  1  0
 32  6  1  0
 23  8  1  0
 31 25  1  0
 21 12  1  0
 21 16  1  0
  1 36  1  0
  1 37  1  0
  1 38  1  0
  2 39  1  0
  7 40  1  0
  7 41  1  0
 13 42  1  0
 15 43  1  0
 17 44  1  0
 18 45  1  0
 19 46  1  0
 20 47  1  0
 22 48  1  0
 22 49  1  0
 23 50  1  6
 24 51  1  0
 24 52  1  0
 24 53  1  0
 26 54  1  0
 29 55  1  0
 30 56  1  0
 34 57  1  0
 34 58  1  0
 35 59  1  0
 35 60  1  0
M  END
$$$$
