
     RDKit          3D

 54 57  0  0  0  0  0  0  0  0999 V2000
   -5.1578   -1.4741  -27.1342 C   0  0  0  0  0  0  0  0  0  0  0  0
   -6.1932   -1.5222  -26.1780 O   0  0  0  0  0  0  0  0  0  0  0  0
   -6.6782   -2.7550  -25.8495 C   0  0  0  0  0  0  0  0  0  0  0  0
   -6.1999   -3.9305  -26.4271 C   0  0  0  0  0  0  0  0  0  0  0  0
   -6.7094   -5.1624  -26.0339 C   0  0  0  0  0  0  0  0  0  0  0  0
   -7.7001   -5.2203  -25.0697 C   0  0  0  0  0  0  0  0  0  0  0  0
   -8.1708   -4.0444  -24.4989 C   0  0  0  0  0  0  0  0  0  0  0  0
   -7.6620   -2.8023  -24.8492 C   0  0  0  0  0  0  0  0  0  0  0  0
   -8.0938   -1.5347  -24.1277 C   0  0  1  0  0  0  0  0  0  0  0  0
   -8.9385   -0.5597  -24.9949 C   0  0  0  0  0  0  0  0  0  0  0  0
   -9.7114    0.4622  -24.1330 C   0  0  2  0  0  0  0  0  0  0  0  0
   -8.8228    1.3990  -23.3040 C   0  0  0  0  0  0  0  0  0  0  0  0
  -10.7207   -0.2815  -23.2318 C   0  0  0  0  0  0  0  0  0  0  0  0
  -10.2945   -1.7386  -23.0619 C   0  0  0  0  0  0  0  0  0  0  0  0
   -8.8367   -1.8555  -22.9022 N   0  0  0  0  0  0  0  0  0  0  0  0
   -8.3567   -1.4826  -21.6504 C   0  0  0  0  0  0  0  0  0  0  0  0
   -9.0885   -0.8994  -20.8829 O   0  0  0  0  0  0  0  0  0  0  0  0
   -6.9794   -1.9817  -21.2095 C   0  0  0  0  0  0  0  0  0  0  0  0
   -6.2407   -1.1907  -20.1474 C   0  0  0  0  0  0  0  0  0  0  0  0
   -6.5015   -1.4245  -18.8194 C   0  0  0  0  0  0  0  0  0  0  0  0
   -5.8109   -0.9086  -17.7700 N   0  0  0  0  0  0  0  0  0  0  0  0
   -4.8107   -0.1040  -18.0380 C   0  0  0  0  0  0  0  0  0  0  0  0
   -4.4432    0.2616  -19.3587 C   0  0  0  0  0  0  0  0  0  0  0  0
   -3.3755    1.1599  -19.6020 C   0  0  0  0  0  0  0  0  0  0  0  0
   -3.0217    1.4926  -20.8835 C   0  0  0  0  0  0  0  0  0  0  0  0
   -3.7116    0.9151  -21.9707 C   0  0  0  0  0  0  0  0  0  0  0  0
   -4.7436    0.0353  -21.7602 C   0  0  0  0  0  0  0  0  0  0  0  0
   -5.1622   -0.3011  -20.4454 C   0  0  0  0  0  0  0  0  0  0  0  0
   -4.2754   -2.0297  -26.7885 H   0  0  0  0  0  0  0  0  0  0  0  0
   -4.8969   -0.4211  -27.2592 H   0  0  0  0  0  0  0  0  0  0  0  0
   -5.4887   -1.8901  -28.0959 H   0  0  0  0  0  0  0  0  0  0  0  0
   -5.4183   -3.9014  -27.1750 H   0  0  0  0  0  0  0  0  0  0  0  0
   -6.3158   -6.0740  -26.4733 H   0  0  0  0  0  0  0  0  0  0  0  0
   -8.0951   -6.1706  -24.7315 H   0  0  0  0  0  0  0  0  0  0  0  0
   -8.9281   -4.0938  -23.7263 H   0  0  0  0  0  0  0  0  0  0  0  0
   -7.1915   -0.9897  -23.8214 H   0  0  0  0  0  0  0  0  0  0  0  0
   -8.2796   -0.0538  -25.7031 H   0  0  0  0  0  0  0  0  0  0  0  0
   -9.6644   -1.1268  -25.5943 H   0  0  0  0  0  0  0  0  0  0  0  0
  -10.2745    1.1220  -24.8012 H   0  0  0  0  0  0  0  0  0  0  0  0
   -9.4673    2.0277  -22.6865 H   0  0  0  0  0  0  0  0  0  0  0  0
   -8.1404    0.8763  -22.6254 H   0  0  0  0  0  0  0  0  0  0  0  0
   -8.2395    2.0753  -23.9367 H   0  0  0  0  0  0  0  0  0  0  0  0
  -10.7732    0.2058  -22.2575 H   0  0  0  0  0  0  0  0  0  0  0  0
  -11.7408   -0.2424  -23.6312 H   0  0  0  0  0  0  0  0  0  0  0  0
  -10.7884   -2.2091  -22.2101 H   0  0  0  0  0  0  0  0  0  0  0  0
  -10.5943   -2.3014  -23.9571 H   0  0  0  0  0  0  0  0  0  0  0  0
   -6.3774   -2.1617  -22.0998 H   0  0  0  0  0  0  0  0  0  0  0  0
   -7.1972   -2.9769  -20.7885 H   0  0  0  0  0  0  0  0  0  0  0  0
   -7.3059   -2.1008  -18.5286 H   0  0  0  0  0  0  0  0  0  0  0  0
   -4.2360    0.3019  -17.1993 H   0  0  0  0  0  0  0  0  0  0  0  0
   -2.8477    1.5812  -18.7511 H   0  0  0  0  0  0  0  0  0  0  0  0
   -2.2233    2.2041  -21.0737 H   0  0  0  0  0  0  0  0  0  0  0  0
   -3.4139    1.1589  -22.9874 H   0  0  0  0  0  0  0  0  0  0  0  0
   -5.2503   -0.4171  -22.6102 H   0  0  0  0  0  0  0  0  0  0  0  0
  1  2  1  0
  2  3  1  0
  3  4  2  0
  4  5  1  0
  5  6  2  0
  6  7  1  0
  7  8  2  0
  8  9  1  0
  9 10  1  0
 10 11  1  0
 11 12  1  0
 11 13  1  0
 13 14  1  0
 14 15  1  0
 15 16  1  0
 16 17  2  0
 16 18  1  0
 18 19  1  0
 19 20  2  0
 20 21  1  0
 21 22  2  0
 22 23  1  0
 23 24  2  0
 24 25  1  0
 25 26  2  0
 26 27  1  0
 27 28  2  0
  8  3  1  0
 15  9  1  0
 28 19  1  0
 28 23  1  0
  1 29  1  0
  1 30  1  0
  1 31  1  0
  4 32  1  0
  5 33  1  0
  6 34  1  0
  7 35  1  0
  9 36  1  1
 10 37  1  0
 10 38  1  0
 11 39  1  6
 12 40  1  0
 12 41  1  0
 12 42  1  0
 13 43  1  0
 13 44  1  0
 14 45  1  0
 14 46  1  0
 18 47  1  0
 18 48  1  0
 20 49  1  0
 22 50  1  0
 24 51  1  0
 25 52  1  0
 26 53  1  0
 27 54  1  0
M  END
