mobile
  PyMOL3.1          3D                             0

 44 47  0  0  0  0  0  0  0  0999 V2000
  -13.6587   -2.7134  -21.2402 Cl  0  0  0  0  0  0  0  0  0  0  0  0
  -12.5009   -1.9839  -22.3230 C   0  0  0  0  0  0  0  0  0  0  0  0
  -11.1665   -2.3105  -22.1922 C   0  0  0  0  0  0  0  0  0  0  0  0
  -12.9327   -1.0645  -23.2548 C   0  0  0  0  0  0  0  0  0  0  0  0
  -12.0057   -0.4605  -24.0875 C   0  0  0  0  0  0  0  0  0  0  0  0
  -10.6488   -0.7636  -23.9666 C   0  0  0  0  0  0  0  0  0  0  0  0
   -9.6814   -0.1356  -24.8058 N   0  0  0  0  0  0  0  0  0  0  0  0
  -10.0917    0.6355  -25.8449 C   0  0  0  0  0  0  0  0  0  0  0  0
  -10.4479    1.8038  -25.6176 O   0  0  0  0  0  0  0  0  0  0  0  0
  -10.1279    0.0628  -27.0553 N   0  0  0  0  0  0  0  0  0  0  0  0
  -10.2167   -1.6844  -22.9977 C   0  0  0  0  0  0  0  0  0  0  0  0
   -8.7449   -1.9604  -22.7637 C   0  0  0  0  0  0  0  0  0  0  0  0
   -7.9183   -1.6662  -24.0179 C   0  0  0  0  0  0  0  0  0  0  0  0
   -8.2402   -0.2768  -24.5325 C   0  0  0  0  0  0  0  0  0  0  0  0
   -8.2422   -1.1259  -21.5844 C   0  0  0  0  0  0  0  0  0  0  0  0
   -8.7946   -0.0773  -21.2394 O   0  0  0  0  0  0  0  0  0  0  0  0
   -7.1491   -1.6325  -20.9668 N   0  0  0  0  0  0  0  0  0  0  0  0
   -6.4293   -1.0658  -19.8977 C   0  0  0  0  0  0  0  0  0  0  0  0
   -5.3286   -0.2073  -20.2014 C   0  0  0  0  0  0  0  0  0  0  0  0
   -4.8492    0.0271  -21.5162 C   0  0  0  0  0  0  0  0  0  0  0  0
   -3.8009    0.8744  -21.7419 C   0  0  0  0  0  0  0  0  0  0  0  0
   -3.1815    1.5321  -20.6864 C   0  0  0  0  0  0  0  0  0  0  0  0
   -3.5991    1.3319  -19.4028 C   0  0  0  0  0  0  0  0  0  0  0  0
   -4.6736    0.4518  -19.1222 C   0  0  0  0  0  0  0  0  0  0  0  0
   -5.1390    0.1866  -17.8096 C   0  0  0  0  0  0  0  0  0  0  0  0
   -6.1506   -0.6237  -17.5277 N   0  0  0  0  0  0  0  0  0  0  0  0
   -6.7723   -1.2230  -18.5552 C   0  0  0  0  0  0  0  0  0  0  0  0
  -10.8586   -3.0485  -21.4659 H   0  0  0  0  0  0  0  0  0  0  0  0
  -13.9816   -0.8191  -23.3342 H   0  0  0  0  0  0  0  0  0  0  0  0
  -12.3333    0.2476  -24.8338 H   0  0  0  0  0  0  0  0  0  0  0  0
  -10.4562    0.5811  -27.8446 H   0  0  0  0  0  0  0  0  0  0  0  0
   -9.8254   -0.8841  -27.1691 H   0  0  0  0  0  0  0  0  0  0  0  0
   -8.6239   -3.0235  -22.5106 H   0  0  0  0  0  0  0  0  0  0  0  0
   -6.8481   -1.7262  -23.7729 H   0  0  0  0  0  0  0  0  0  0  0  0
   -8.1580   -2.4078  -24.7949 H   0  0  0  0  0  0  0  0  0  0  0  0
   -7.6793   -0.0989  -25.4625 H   0  0  0  0  0  0  0  0  0  0  0  0
   -7.9430    0.4651  -23.7773 H   0  0  0  0  0  0  0  0  0  0  0  0
   -6.8147   -2.5101  -21.3092 H   0  0  0  0  0  0  0  0  0  0  0  0
   -5.3198   -0.4698  -22.3510 H   0  0  0  0  0  0  0  0  0  0  0  0
   -3.4500    1.0341  -22.7512 H   0  0  0  0  0  0  0  0  0  0  0  0
   -2.3620    2.2063  -20.8832 H   0  0  0  0  0  0  0  0  0  0  0  0
   -3.1066    1.8500  -18.5929 H   0  0  0  0  0  0  0  0  0  0  0  0
   -4.6369    0.6742  -16.9871 H   0  0  0  0  0  0  0  0  0  0  0  0
   -7.6001   -1.8769  -18.3248 H   0  0  0  0  0  0  0  0  0  0  0  0
  1  2  1  0  0  0  0
  2  3  4  0  0  0  0
  2  4  4  0  0  0  0
  3 11  4  0  0  0  0
  3 28  1  0  0  0  0
  4  5  4  0  0  0  0
  4 29  1  0  0  0  0
  5  6  4  0  0  0  0
  5 30  1  0  0  0  0
  6  7  1  0  0  0  0
  6 11  4  0  0  0  0
  7  8  1  0  0  0  0
  7 14  1  0  0  0  0
  8  9  2  0  0  0  0
  8 10  1  0  0  0  0
 10 31  1  0  0  0  0
 10 32  1  0  0  0  0
 11 12  1  0  0  0  0
 12 13  1  0  0  0  0
 12 15  1  0  0  0  0
 12 33  1  0  0  0  0
 13 14  1  0  0  0  0
 13 34  1  0  0  0  0
 13 35  1  0  0  0  0
 14 36  1  0  0  0  0
 14 37  1  0  0  0  0
 15 16  2  0  0  0  0
 15 17  1  0  0  0  0
 17 18  1  0  0  0  0
 17 38  1  0  0  0  0
 18 19  4  0  0  0  0
 18 27  4  0  0  0  0
 19 20  4  0  0  0  0
 19 24  4  0  0  0  0
 20 21  4  0  0  0  0
 20 39  1  0  0  0  0
 21 22  4  0  0  0  0
 21 40  1  0  0  0  0
 22 23  4  0  0  0  0
 22 41  1  0  0  0  0
 23 24  4  0  0  0  0
 23 42  1  0  0  0  0
 24 25  4  0  0  0  0
 25 26  4  0  0  0  0
 25 43  1  0  0  0  0
 26 27  4  0  0  0  0
 27 44  1  0  0  0  0
M  END
$$$$
