
     RDKit          3D

 43 45  0  0  0  0  0  0  0  0999 V2000
   -7.6906   -0.4747  -26.6356 C   0  0  0  0  0  0  0  0  0  0  0  0
   -8.8920   -0.7694  -25.7282 C   0  0  0  0  0  0  0  0  0  0  0  0
   -8.6728   -2.0026  -24.8208 C   0  0  0  0  0  0  0  0  0  0  0  0
   -9.8616   -2.1061  -23.8170 C   0  0  0  0  0  0  0  0  0  0  0  0
   -9.5769   -2.9766  -22.5875 C   0  0  0  0  0  0  0  0  0  0  0  0
   -8.2799   -2.5616  -22.0504 N   0  0  0  0  0  0  0  0  0  0  0  0
   -8.2076   -1.3543  -21.3509 C   0  0  0  0  0  0  0  0  0  0  0  0
   -9.2463   -0.8232  -20.9963 O   0  0  0  0  0  0  0  0  0  0  0  0
   -6.9375   -0.4875  -21.3275 C   0  0  0  0  0  0  0  0  0  0  0  0
   -6.1020   -0.3709  -20.0475 C   0  0  0  0  0  0  0  0  0  0  0  0
   -6.5199   -0.8021  -18.7709 C   0  0  0  0  0  0  0  0  0  0  0  0
   -5.7690   -0.6494  -17.6616 N   0  0  0  0  0  0  0  0  0  0  0  0
   -4.5647   -0.0579  -17.7694 C   0  0  0  0  0  0  0  0  0  0  0  0
   -4.0442    0.3840  -18.9914 C   0  0  0  0  0  0  0  0  0  0  0  0
   -2.7631    0.9643  -19.0890 C   0  0  0  0  0  0  0  0  0  0  0  0
   -2.2808    1.3958  -20.3359 C   0  0  0  0  0  0  0  0  0  0  0  0
   -3.0775    1.2732  -21.4829 C   0  0  0  0  0  0  0  0  0  0  0  0
   -4.3525    0.7061  -21.3747 C   0  0  0  0  0  0  0  0  0  0  0  0
   -4.8402    0.2395  -20.1436 C   0  0  0  0  0  0  0  0  0  0  0  0
   -7.1871   -2.8969  -22.9447 C   0  0  0  0  0  0  0  0  0  0  0  0
   -7.2974   -1.9120  -24.1111 C   0  0  0  0  0  0  0  0  0  0  0  0
   -7.8895    0.3952  -27.2753 H   0  0  0  0  0  0  0  0  0  0  0  0
   -6.8093   -0.2556  -26.0217 H   0  0  0  0  0  0  0  0  0  0  0  0
   -7.4793   -1.3426  -27.2702 H   0  0  0  0  0  0  0  0  0  0  0  0
   -9.7883   -0.9126  -26.3362 H   0  0  0  0  0  0  0  0  0  0  0  0
   -9.0847    0.1089  -25.1084 H   0  0  0  0  0  0  0  0  0  0  0  0
   -8.6619   -2.9004  -25.4472 H   0  0  0  0  0  0  0  0  0  0  0  0
  -10.1099   -1.1111  -23.4382 H   0  0  0  0  0  0  0  0  0  0  0  0
  -10.7425   -2.4924  -24.3405 H   0  0  0  0  0  0  0  0  0  0  0  0
  -10.3727   -2.8413  -21.8474 H   0  0  0  0  0  0  0  0  0  0  0  0
   -9.5700   -4.0354  -22.8648 H   0  0  0  0  0  0  0  0  0  0  0  0
   -6.2811   -0.8391  -22.1284 H   0  0  0  0  0  0  0  0  0  0  0  0
   -7.2504    0.5224  -21.6004 H   0  0  0  0  0  0  0  0  0  0  0  0
   -7.5083   -1.2371  -18.6675 H   0  0  0  0  0  0  0  0  0  0  0  0
   -3.9692    0.0754  -16.8706 H   0  0  0  0  0  0  0  0  0  0  0  0
   -2.1435    1.0877  -18.2014 H   0  0  0  0  0  0  0  0  0  0  0  0
   -1.2872    1.8290  -20.4142 H   0  0  0  0  0  0  0  0  0  0  0  0
   -2.7153    1.6179  -22.4520 H   0  0  0  0  0  0  0  0  0  0  0  0
   -4.9785    0.6268  -22.2572 H   0  0  0  0  0  0  0  0  0  0  0  0
   -6.2192   -2.8247  -22.4359 H   0  0  0  0  0  0  0  0  0  0  0  0
   -7.2886   -3.9223  -23.3173 H   0  0  0  0  0  0  0  0  0  0  0  0
   -6.4870   -2.0892  -24.8219 H   0  0  0  0  0  0  0  0  0  0  0  0
   -7.1763   -0.8996  -23.7268 H   0  0  0  0  0  0  0  0  0  0  0  0
  1  2  1  0
  2  3  1  0
  3  4  1  0
  4  5  1  0
  5  6  1  0
  6  7  1  0
  7  8  2  0
  7  9  1  0
  9 10  1  0
 10 11  2  0
 11 12  1  0
 12 13  2  0
 13 14  1  0
 14 15  2  0
 15 16  1  0
 16 17  2  0
 17 18  1  0
 18 19  2  0
  6 20  1  0
 20 21  1  0
 21  3  1  0
 19 10  1  0
 19 14  1  0
  1 22  1  0
  1 23  1  0
  1 24  1  0
  2 25  1  0
  2 26  1  0
  3 27  1  0
  4 28  1  0
  4 29  1  0
  5 30  1  0
  5 31  1  0
  9 32  1  0
  9 33  1  0
 11 34  1  0
 13 35  1  0
 15 36  1  0
 16 37  1  0
 17 38  1  0
 18 39  1  0
 20 40  1  0
 20 41  1  0
 21 42  1  0
 21 43  1  0
M  END
