
     RDKit          3D

 43 45  0  0  0  0  0  0  0  0999 V2000
    8.2327    0.6406   26.6093 C   0  0  0  0  0  0  0  0  0  0  0  0
    9.4226    0.3653   25.6809 C   0  0  0  0  0  0  0  0  0  0  0  0
    9.2195   -0.8880   24.7976 C   0  0  0  0  0  0  0  0  0  0  0  0
   10.3894   -0.9741   23.7702 C   0  0  0  0  0  0  0  0  0  0  0  0
   10.1037   -1.8719   22.5607 C   0  0  0  0  0  0  0  0  0  0  0  0
    8.7844   -1.5022   22.0453 N   0  0  0  0  0  0  0  0  0  0  0  0
    8.6630   -0.3088   21.3289 C   0  0  0  0  0  0  0  0  0  0  0  0
    9.6785    0.2455   20.9439 O   0  0  0  0  0  0  0  0  0  0  0  0
    7.3686    0.5214   21.3195 C   0  0  0  0  0  0  0  0  0  0  0  0
    6.5033    0.5939   20.0561 C   0  0  0  0  0  0  0  0  0  0  0  0
    6.9063    0.1542   18.7776 C   0  0  0  0  0  0  0  0  0  0  0  0
    6.1281    0.2679   17.6825 N   0  0  0  0  0  0  0  0  0  0  0  0
    4.9100    0.8269   17.8071 C   0  0  0  0  0  0  0  0  0  0  0  0
    4.4030    1.2736   19.0330 C   0  0  0  0  0  0  0  0  0  0  0  0
    3.1083    1.8191   19.1492 C   0  0  0  0  0  0  0  0  0  0  0  0
    2.6403    2.2568   20.3994 C   0  0  0  0  0  0  0  0  0  0  0  0
    3.4642    2.1751   21.5307 C   0  0  0  0  0  0  0  0  0  0  0  0
    4.7522    1.6424   21.4039 C   0  0  0  0  0  0  0  0  0  0  0  0
    5.2269    1.1700   20.1699 C   0  0  0  0  0  0  0  0  0  0  0  0
    7.7207   -1.8537   22.9680 C   0  0  0  0  0  0  0  0  0  0  0  0
    7.8275   -0.8475   24.1164 C   0  0  0  0  0  0  0  0  0  0  0  0
    8.4202    1.5259   27.2311 H   0  0  0  0  0  0  0  0  0  0  0  0
    7.3328    0.8250   26.0112 H   0  0  0  0  0  0  0  0  0  0  0  0
    8.0596   -0.2226   27.2617 H   0  0  0  0  0  0  0  0  0  0  0  0
   10.3352    0.2572   26.2717 H   0  0  0  0  0  0  0  0  0  0  0  0
    9.5771    1.2386   25.0436 H   0  0  0  0  0  0  0  0  0  0  0  0
    9.2474   -1.7756   25.4379 H   0  0  0  0  0  0  0  0  0  0  0  0
   10.6012    0.0213   23.3708 H   0  0  0  0  0  0  0  0  0  0  0  0
   11.2917   -1.3270   24.2805 H   0  0  0  0  0  0  0  0  0  0  0  0
   10.8796   -1.7262   21.8017 H   0  0  0  0  0  0  0  0  0  0  0  0
   10.1328   -2.9259   22.8544 H   0  0  0  0  0  0  0  0  0  0  0  0
    6.7395    0.1644   22.1397 H   0  0  0  0  0  0  0  0  0  0  0  0
    7.6583    1.5440   21.5700 H   0  0  0  0  0  0  0  0  0  0  0  0
    7.9043   -0.2545   18.6597 H   0  0  0  0  0  0  0  0  0  0  0  0
    4.2922    0.9290   16.9193 H   0  0  0  0  0  0  0  0  0  0  0  0
    2.4669    1.9107   18.2733 H   0  0  0  0  0  0  0  0  0  0  0  0
    1.6366    2.6631   20.4923 H   0  0  0  0  0  0  0  0  0  0  0  0
    3.1128    2.5250   22.5019 H   0  0  0  0  0  0  0  0  0  0  0  0
    5.3987    1.5950   22.2738 H   0  0  0  0  0  0  0  0  0  0  0  0
    6.7406   -1.8170   22.4791 H   0  0  0  0  0  0  0  0  0  0  0  0
    7.8591   -2.8698   23.3541 H   0  0  0  0  0  0  0  0  0  0  0  0
    7.0376   -1.0360   24.8471 H   0  0  0  0  0  0  0  0  0  0  0  0
    7.6695    0.1548   23.7192 H   0  0  0  0  0  0  0  0  0  0  0  0
  1  2  1  0
  2  3  1  0
  3  4  1  0
  4  5  1  0
  5  6  1  0
  6  7  1  0
  7  8  2  0
  7  9  1  0
  9 10  1  0
 10 11  2  0
 11 12  1  0
 12 13  2  0
 13 14  1  0
 14 15  2  0
 15 16  1  0
 16 17  2  0
 17 18  1  0
 18 19  2  0
  6 20  1  0
 20 21  1  0
 21  3  1  0
 19 10  1  0
 19 14  1  0
  1 22  1  0
  1 23  1  0
  1 24  1  0
  2 25  1  0
  2 26  1  0
  3 27  1  0
  4 28  1  0
  4 29  1  0
  5 30  1  0
  5 31  1  0
  9 32  1  0
  9 33  1  0
 11 34  1  0
 13 35  1  0
 15 36  1  0
 16 37  1  0
 17 38  1  0
 18 39  1  0
 20 40  1  0
 20 41  1  0
 21 42  1  0
 21 43  1  0
M  END
$$$$
