
     RDKit          3D

 63 68  0  0  0  0  0  0  0  0999 V2000
   -8.4255   -3.8250  -23.7046 C   0  0  0  0  0  0  0  0  0  0  0  0
   -8.5335   -2.8229  -22.5628 C   0  0  1  0  0  0  0  0  0  0  0  0
   -7.2239   -2.5582  -21.8133 C   0  0  0  0  0  0  0  0  0  0  0  0
   -7.5053   -1.3034  -21.1438 N   0  0  0  0  0  0  0  0  0  0  0  0
   -6.6619   -0.7887  -20.1169 C   0  0  0  0  0  0  0  0  0  0  0  0
   -6.8809   -1.1556  -18.8115 C   0  0  0  0  0  0  0  0  0  0  0  0
   -6.1096   -0.7748  -17.7644 N   0  0  0  0  0  0  0  0  0  0  0  0
   -5.0828    0.0002  -18.0146 C   0  0  0  0  0  0  0  0  0  0  0  0
   -4.7460    0.4690  -19.3163 C   0  0  0  0  0  0  0  0  0  0  0  0
   -3.6537    1.3528  -19.5289 C   0  0  0  0  0  0  0  0  0  0  0  0
   -3.3284    1.7594  -20.7921 C   0  0  0  0  0  0  0  0  0  0  0  0
   -4.0722    1.3001  -21.8998 C   0  0  0  0  0  0  0  0  0  0  0  0
   -5.1547    0.4726  -21.7181 C   0  0  0  0  0  0  0  0  0  0  0  0
   -5.5345    0.0450  -20.4135 C   0  0  0  0  0  0  0  0  0  0  0  0
   -8.4681   -0.5651  -21.7877 C   0  0  0  0  0  0  0  0  0  0  0  0
   -8.7543    0.5853  -21.5082 O   0  0  0  0  0  0  0  0  0  0  0  0
   -9.0713   -1.4166  -22.9379 C   0  0  1  0  0  0  0  0  0  0  0  0
   -8.5042   -0.8901  -24.2852 C   0  0  0  0  0  0  0  0  0  0  0  0
   -8.9883    0.4482  -24.5816 N   0  0  0  0  0  0  0  0  0  0  0  0
   -8.1664    1.3452  -25.3587 C   0  0  0  0  0  0  0  0  0  0  0  0
   -7.4982    2.4943  -24.5958 C   0  0  0  0  0  0  0  0  0  0  0  0
   -6.7369    3.2365  -25.2043 O   0  0  0  0  0  0  0  0  0  0  0  0
   -7.7718    2.6180  -23.2722 N   0  0  0  0  0  0  0  0  0  0  0  0
   -6.9734    3.5129  -22.4669 C   0  0  0  0  0  0  0  0  0  0  0  0
   -7.5037    4.9301  -22.3777 C   0  0  0  0  0  0  0  0  0  0  0  0
   -8.8336    4.9735  -22.0505 F   0  0  0  0  0  0  0  0  0  0  0  0
   -7.0635    6.0085  -23.3084 C   0  0  0  0  0  0  0  0  0  0  0  0
   -6.6028    5.9987  -21.8620 C   0  0  0  0  0  0  0  0  0  0  0  0
  -10.2428    0.8773  -24.2529 C   0  0  0  0  0  0  0  0  0  0  0  0
  -10.6164    2.0254  -24.4683 O   0  0  0  0  0  0  0  0  0  0  0  0
  -11.1240   -0.1355  -23.6030 C   0  0  0  0  0  0  0  0  0  0  0  0
  -12.4935    0.1229  -23.5796 C   0  0  0  0  0  0  0  0  0  0  0  0
  -13.3640   -0.7995  -23.0387 C   0  0  0  0  0  0  0  0  0  0  0  0
  -12.8300   -1.9807  -22.5381 C   0  0  0  0  0  0  0  0  0  0  0  0
  -13.6707   -2.8783  -21.9930 F   0  0  0  0  0  0  0  0  0  0  0  0
  -11.4780   -2.2646  -22.5578 C   0  0  0  0  0  0  0  0  0  0  0  0
  -10.5825   -1.2994  -23.0378 C   0  0  0  0  0  0  0  0  0  0  0  0
   -7.6698   -3.5087  -24.4352 H   0  0  0  0  0  0  0  0  0  0  0  0
   -8.1402   -4.8164  -23.3345 H   0  0  0  0  0  0  0  0  0  0  0  0
   -9.3853   -3.9151  -24.2275 H   0  0  0  0  0  0  0  0  0  0  0  0
   -9.2098   -3.2208  -21.7980 H   0  0  0  0  0  0  0  0  0  0  0  0
   -6.9916   -3.3325  -21.0772 H   0  0  0  0  0  0  0  0  0  0  0  0
   -6.3697   -2.4741  -22.5090 H   0  0  0  0  0  0  0  0  0  0  0  0
   -7.7310   -1.7917  -18.5668 H   0  0  0  0  0  0  0  0  0  0  0  0
   -4.4664    0.3134  -17.1715 H   0  0  0  0  0  0  0  0  0  0  0  0
   -3.0978    1.7052  -18.6657 H   0  0  0  0  0  0  0  0  0  0  0  0
   -2.5010    2.4438  -20.9513 H   0  0  0  0  0  0  0  0  0  0  0  0
   -3.7967    1.6200  -22.9011 H   0  0  0  0  0  0  0  0  0  0  0  0
   -5.7254    0.1447  -22.5827 H   0  0  0  0  0  0  0  0  0  0  0  0
   -7.4088   -0.8523  -24.2372 H   0  0  0  0  0  0  0  0  0  0  0  0
   -8.7910   -1.5753  -25.0957 H   0  0  0  0  0  0  0  0  0  0  0  0
   -7.3688    0.7684  -25.8403 H   0  0  0  0  0  0  0  0  0  0  0  0
   -8.7575    1.7902  -26.1638 H   0  0  0  0  0  0  0  0  0  0  0  0
   -8.3611    1.9545  -22.7661 H   0  0  0  0  0  0  0  0  0  0  0  0
   -6.8899    3.0870  -21.4581 H   0  0  0  0  0  0  0  0  0  0  0  0
   -5.9693    3.5724  -22.9093 H   0  0  0  0  0  0  0  0  0  0  0  0
   -6.4125    5.7467  -24.1377 H   0  0  0  0  0  0  0  0  0  0  0  0
   -7.8145    6.7489  -23.5756 H   0  0  0  0  0  0  0  0  0  0  0  0
   -5.5889    5.7036  -21.6201 H   0  0  0  0  0  0  0  0  0  0  0  0
   -6.9722    6.7567  -21.1802 H   0  0  0  0  0  0  0  0  0  0  0  0
  -12.8532    1.0569  -23.9971 H   0  0  0  0  0  0  0  0  0  0  0  0
  -14.4333   -0.6230  -22.9858 H   0  0  0  0  0  0  0  0  0  0  0  0
  -11.1560   -3.2230  -22.1649 H   0  0  0  0  0  0  0  0  0  0  0  0
  1  2  1  0
  2  3  1  0
  3  4  1  0
  4  5  1  0
  5  6  2  0
  6  7  1  0
  7  8  2  0
  8  9  1  0
  9 10  2  0
 10 11  1  0
 11 12  2  0
 12 13  1  0
 13 14  2  0
  4 15  1  0
 15 16  2  0
 15 17  1  0
 17 18  1  6
 18 19  1  0
 19 20  1  0
 20 21  1  0
 21 22  2  0
 21 23  1  0
 23 24  1  0
 24 25  1  0
 25 26  1  0
 25 27  1  0
 27 28  1  0
 19 29  1  0
 29 30  2  0
 29 31  1  0
 31 32  2  0
 32 33  1  0
 33 34  2  0
 34 35  1  0
 34 36  1  0
 36 37  2  0
 17  2  1  0
 28 25  1  0
 37 31  1  0
 14  5  1  0
 37 17  1  0
 14  9  1  0
  1 38  1  0
  1 39  1  0
  1 40  1  0
  2 41  1  1
  3 42  1  0
  3 43  1  0
  6 44  1  0
  8 45  1  0
 10 46  1  0
 11 47  1  0
 12 48  1  0
 13 49  1  0
 18 50  1  0
 18 51  1  0
 20 52  1  0
 20 53  1  0
 23 54  1  0
 24 55  1  0
 24 56  1  0
 27 57  1  0
 27 58  1  0
 28 59  1  0
 28 60  1  0
 32 61  1  0
 33 62  1  0
 36 63  1  0
M  END
