
     RDKit          3D

 63 68  0  0  0  0  0  0  0  0999 V2000
    8.9308   -2.7404   23.6833 C   0  0  0  0  0  0  0  0  0  0  0  0
    8.9858   -1.7544   22.5238 C   0  0  1  0  0  0  0  0  0  0  0  0
    7.6533   -1.5383   21.7996 C   0  0  0  0  0  0  0  0  0  0  0  0
    7.8847   -0.2872   21.1044 N   0  0  0  0  0  0  0  0  0  0  0  0
    7.0051    0.1872   20.0886 C   0  0  0  0  0  0  0  0  0  0  0  0
    7.2058   -0.1946   18.7846 C   0  0  0  0  0  0  0  0  0  0  0  0
    6.4015    0.1476   17.7490 N   0  0  0  0  0  0  0  0  0  0  0  0
    5.3591    0.8978   18.0098 C   0  0  0  0  0  0  0  0  0  0  0  0
    5.0377    1.3782   19.3112 C   0  0  0  0  0  0  0  0  0  0  0  0
    3.9259    2.2347   19.5342 C   0  0  0  0  0  0  0  0  0  0  0  0
    3.6169    2.6526   20.7978 C   0  0  0  0  0  0  0  0  0  0  0  0
    4.3972    2.2322   21.8957 C   0  0  0  0  0  0  0  0  0  0  0  0
    5.4983    1.4321   21.7030 C   0  0  0  0  0  0  0  0  0  0  0  0
    5.8614    0.9941   20.3971 C   0  0  0  0  0  0  0  0  0  0  0  0
    8.8402    0.4878   21.7152 C   0  0  0  0  0  0  0  0  0  0  0  0
    9.0879    1.6410   21.4114 O   0  0  0  0  0  0  0  0  0  0  0  0
    9.4920   -0.3278   22.8649 C   0  0  1  0  0  0  0  0  0  0  0  0
    8.9398    0.2046   24.2160 C   0  0  0  0  0  0  0  0  0  0  0  0
    9.3925    1.5604   24.4807 N   0  0  0  0  0  0  0  0  0  0  0  0
    8.5629    2.4468   25.2617 C   0  0  0  0  0  0  0  0  0  0  0  0
    7.8463    3.5644   24.4960 C   0  0  0  0  0  0  0  0  0  0  0  0
    7.0779    4.2950   25.1096 O   0  0  0  0  0  0  0  0  0  0  0  0
    8.0874    3.6741   23.1649 N   0  0  0  0  0  0  0  0  0  0  0  0
    7.2469    4.5334   22.3636 C   0  0  0  0  0  0  0  0  0  0  0  0
    7.7352    5.9631   22.2405 C   0  0  0  0  0  0  0  0  0  0  0  0
    9.0559    6.0380   21.8832 F   0  0  0  0  0  0  0  0  0  0  0  0
    7.2853    7.0439   23.1638 C   0  0  0  0  0  0  0  0  0  0  0  0
    6.7936    6.9978   21.7283 C   0  0  0  0  0  0  0  0  0  0  0  0
   10.6270    2.0187   24.1175 C   0  0  0  0  0  0  0  0  0  0  0  0
   10.9729    3.1800   24.3066 O   0  0  0  0  0  0  0  0  0  0  0  0
   11.5219    1.0202   23.4641 C   0  0  0  0  0  0  0  0  0  0  0  0
   12.8828    1.3161   23.4062 C   0  0  0  0  0  0  0  0  0  0  0  0
   13.7668    0.4095   22.8606 C   0  0  0  0  0  0  0  0  0  0  0  0
   13.2554   -0.7941   22.3905 C   0  0  0  0  0  0  0  0  0  0  0  0
   14.1089   -1.6768   21.8410 F   0  0  0  0  0  0  0  0  0  0  0  0
   11.9126   -1.1149   22.4447 C   0  0  0  0  0  0  0  0  0  0  0  0
   11.0011   -0.1672   22.9293 C   0  0  0  0  0  0  0  0  0  0  0  0
    8.1826   -2.4334   24.4254 H   0  0  0  0  0  0  0  0  0  0  0  0
    8.6654   -3.7452   23.3351 H   0  0  0  0  0  0  0  0  0  0  0  0
    9.9039   -2.7954   24.1861 H   0  0  0  0  0  0  0  0  0  0  0  0
    9.6561   -2.1458   21.7505 H   0  0  0  0  0  0  0  0  0  0  0  0
    7.4268   -2.3306   21.0810 H   0  0  0  0  0  0  0  0  0  0  0  0
    6.8124   -1.4666   22.5127 H   0  0  0  0  0  0  0  0  0  0  0  0
    8.0679   -0.8109   18.5310 H   0  0  0  0  0  0  0  0  0  0  0  0
    4.7159    1.1801   17.1758 H   0  0  0  0  0  0  0  0  0  0  0  0
    3.3417    2.5575   18.6781 H   0  0  0  0  0  0  0  0  0  0  0  0
    2.7743    3.3164   20.9646 H   0  0  0  0  0  0  0  0  0  0  0  0
    4.1347    2.5605   22.8978 H   0  0  0  0  0  0  0  0  0  0  0  0
    6.0966    1.1342   22.5597 H   0  0  0  0  0  0  0  0  0  0  0  0
    7.8430    0.2112   24.1918 H   0  0  0  0  0  0  0  0  0  0  0  0
    9.2633   -0.4592   25.0306 H   0  0  0  0  0  0  0  0  0  0  0  0
    7.7924    1.8560   25.7699 H   0  0  0  0  0  0  0  0  0  0  0  0
    9.1586    2.9210   26.0464 H   0  0  0  0  0  0  0  0  0  0  0  0
    8.6839    3.0191   22.6562 H   0  0  0  0  0  0  0  0  0  0  0  0
    7.1534    4.0890   21.3637 H   0  0  0  0  0  0  0  0  0  0  0  0
    6.2514    4.5722   22.8272 H   0  0  0  0  0  0  0  0  0  0  0  0
    6.6601    6.7776   24.0113 H   0  0  0  0  0  0  0  0  0  0  0  0
    8.0208    7.8090   23.4026 H   0  0  0  0  0  0  0  0  0  0  0  0
    5.7834    6.6709   21.5136 H   0  0  0  0  0  0  0  0  0  0  0  0
    7.1267    7.7546   21.0267 H   0  0  0  0  0  0  0  0  0  0  0  0
   13.2252    2.2663   23.8010 H   0  0  0  0  0  0  0  0  0  0  0  0
   14.8294    0.6146   22.7812 H   0  0  0  0  0  0  0  0  0  0  0  0
   11.6092   -2.0881   22.0741 H   0  0  0  0  0  0  0  0  0  0  0  0
  1  2  1  0
  2  3  1  0
  3  4  1  0
  4  5  1  0
  5  6  2  0
  6  7  1  0
  7  8  2  0
  8  9  1  0
  9 10  2  0
 10 11  1  0
 11 12  2  0
 12 13  1  0
 13 14  2  0
  4 15  1  0
 15 16  2  0
 15 17  1  0
 17 18  1  1
 18 19  1  0
 19 20  1  0
 20 21  1  0
 21 22  2  0
 21 23  1  0
 23 24  1  0
 24 25  1  0
 25 26  1  0
 25 27  1  0
 27 28  1  0
 19 29  1  0
 29 30  2  0
 29 31  1  0
 31 32  2  0
 32 33  1  0
 33 34  2  0
 34 35  1  0
 34 36  1  0
 36 37  2  0
 17  2  1  0
 28 25  1  0
 37 31  1  0
 14  5  1  0
 37 17  1  0
 14  9  1  0
  1 38  1  0
  1 39  1  0
  1 40  1  0
  2 41  1  6
  3 42  1  0
  3 43  1  0
  6 44  1  0
  8 45  1  0
 10 46  1  0
 11 47  1  0
 12 48  1  0
 13 49  1  0
 18 50  1  0
 18 51  1  0
 20 52  1  0
 20 53  1  0
 23 54  1  0
 24 55  1  0
 24 56  1  0
 27 57  1  0
 27 58  1  0
 28 59  1  0
 28 60  1  0
 32 61  1  0
 33 62  1  0
 36 63  1  0
M  END
$$$$
