mobile
  PyMOL3.1          3D                             0

 57 61  0  0  0  0  0  0  0  0999 V2000
  -13.8149    6.4909  -23.1633 O   0  0  0  0  0  0  0  0  0  0  0  0
  -13.0424    5.8677  -23.8872 C   0  0  0  0  0  0  0  0  0  0  0  0
  -12.1697    6.6898  -24.7694 C   0  0  0  0  0  0  0  0  0  0  0  0
  -10.8255    6.4315  -24.7985 O   0  0  0  0  0  0  0  0  0  0  0  0
  -10.2669    7.3940  -25.6062 C   0  0  0  0  0  0  0  0  0  0  0  0
  -11.2016    8.2187  -26.0673 C   0  0  0  0  0  0  0  0  0  0  0  0
  -12.4458    7.7723  -25.5334 C   0  0  0  0  0  0  0  0  0  0  0  0
  -12.9848    4.5235  -23.8938 N   0  0  0  0  0  0  0  0  0  0  0  0
  -13.6664    3.7660  -22.8316 C   0  0  0  0  0  0  0  0  0  0  0  0
  -12.8329    2.5793  -22.3954 C   0  0  0  0  0  0  0  0  0  0  0  0
  -12.4169    3.7315  -24.9978 C   0  0  0  0  0  0  0  0  0  0  0  0
  -11.6572    2.5211  -24.4696 C   0  0  0  0  0  0  0  0  0  0  0  0
  -12.5047    1.7524  -23.5572 N   0  0  0  0  0  0  0  0  0  0  0  0
  -12.1591    0.4287  -23.2854 C   0  0  0  0  0  0  0  0  0  0  0  0
  -13.1450   -0.5116  -22.9628 C   0  0  0  0  0  0  0  0  0  0  0  0
  -12.7651   -1.7755  -22.5498 C   0  0  0  0  0  0  0  0  0  0  0  0
  -13.9932   -2.8983  -22.0412 Cl  0  0  0  0  0  0  0  0  0  0  0  0
  -10.8133    0.0439  -23.2291 C   0  0  0  0  0  0  0  0  0  0  0  0
  -10.4531   -1.2323  -22.8020 C   0  0  0  0  0  0  0  0  0  0  0  0
  -11.4408   -2.1495  -22.4669 C   0  0  0  0  0  0  0  0  0  0  0  0
   -8.9929   -1.6080  -22.6702 C   0  0  0  0  0  0  0  0  0  0  0  0
   -8.3079   -0.8581  -21.5428 C   0  0  0  0  0  0  0  0  0  0  0  0
   -8.6031    0.3014  -21.2642 O   0  0  0  0  0  0  0  0  0  0  0  0
   -7.4658   -1.5885  -20.8000 N   0  0  0  0  0  0  0  0  0  0  0  0
   -6.4261   -1.1787  -19.9512 C   0  0  0  0  0  0  0  0  0  0  0  0
   -5.4516   -0.2144  -20.3674 C   0  0  0  0  0  0  0  0  0  0  0  0
   -5.0500   -0.0297  -21.7166 C   0  0  0  0  0  0  0  0  0  0  0  0
   -4.0210    0.8130  -22.0392 C   0  0  0  0  0  0  0  0  0  0  0  0
   -3.3447    1.5149  -21.0510 C   0  0  0  0  0  0  0  0  0  0  0  0
   -3.6936    1.3782  -19.7383 C   0  0  0  0  0  0  0  0  0  0  0  0
   -4.7491    0.5087  -19.3584 C   0  0  0  0  0  0  0  0  0  0  0  0
   -5.0843    0.2541  -18.0124 C   0  0  0  0  0  0  0  0  0  0  0  0
   -5.9801   -0.6372  -17.6251 N   0  0  0  0  0  0  0  0  0  0  0  0
   -6.5953   -1.3454  -18.5778 C   0  0  0  0  0  0  0  0  0  0  0  0
   -9.2136    7.4697  -25.8343 H   0  0  0  0  0  0  0  0  0  0  0  0
  -11.0484    9.0649  -26.7213 H   0  0  0  0  0  0  0  0  0  0  0  0
  -13.4175    8.2111  -25.7045 H   0  0  0  0  0  0  0  0  0  0  0  0
  -13.8316    4.4264  -21.9667 H   0  0  0  0  0  0  0  0  0  0  0  0
  -14.6353    3.4074  -23.2088 H   0  0  0  0  0  0  0  0  0  0  0  0
  -11.9036    2.9373  -21.9283 H   0  0  0  0  0  0  0  0  0  0  0  0
  -13.4018    1.9802  -21.6695 H   0  0  0  0  0  0  0  0  0  0  0  0
  -13.2326    3.3867  -25.6504 H   0  0  0  0  0  0  0  0  0  0  0  0
  -11.7268    4.3633  -25.5765 H   0  0  0  0  0  0  0  0  0  0  0  0
  -11.3597    1.8824  -25.3140 H   0  0  0  0  0  0  0  0  0  0  0  0
  -10.7596    2.8614  -23.9324 H   0  0  0  0  0  0  0  0  0  0  0  0
  -14.1906   -0.2525  -23.0339 H   0  0  0  0  0  0  0  0  0  0  0  0
  -10.0450    0.7458  -23.5196 H   0  0  0  0  0  0  0  0  0  0  0  0
  -11.1742   -3.1445  -22.1446 H   0  0  0  0  0  0  0  0  0  0  0  0
   -8.9220   -2.6877  -22.4716 H   0  0  0  0  0  0  0  0  0  0  0  0
   -8.4800   -1.3740  -23.6146 H   0  0  0  0  0  0  0  0  0  0  0  0
   -7.5985   -2.5786  -20.8594 H   0  0  0  0  0  0  0  0  0  0  0  0
   -5.5657   -0.5635  -22.5019 H   0  0  0  0  0  0  0  0  0  0  0  0
   -3.7321    0.9329  -23.0739 H   0  0  0  0  0  0  0  0  0  0  0  0
   -2.5341    2.1754  -21.3235 H   0  0  0  0  0  0  0  0  0  0  0  0
   -3.1625    1.9370  -18.9824 H   0  0  0  0  0  0  0  0  0  0  0  0
   -4.5756    0.8232  -17.2488 H   0  0  0  0  0  0  0  0  0  0  0  0
   -7.2826   -2.1131  -18.2546 H   0  0  0  0  0  0  0  0  0  0  0  0
  1  2  2  0  0  0  0
  2  3  1  0  0  0  0
  2  8  1  0  0  0  0
  3  4  4  0  0  0  0
  3  7  4  0  0  0  0
  4  5  4  0  0  0  0
  5  6  4  0  0  0  0
  5 35  1  0  0  0  0
  6  7  4  0  0  0  0
  6 36  1  0  0  0  0
  7 37  1  0  0  0  0
  8  9  1  0  0  0  0
  8 11  1  0  0  0  0
  9 10  1  0  0  0  0
  9 38  1  0  0  0  0
  9 39  1  0  0  0  0
 10 13  1  0  0  0  0
 10 40  1  0  0  0  0
 10 41  1  0  0  0  0
 11 12  1  0  0  0  0
 11 42  1  0  0  0  0
 11 43  1  0  0  0  0
 12 13  1  0  0  0  0
 12 44  1  0  0  0  0
 12 45  1  0  0  0  0
 13 14  1  0  0  0  0
 14 15  4  0  0  0  0
 14 18  4  0  0  0  0
 15 16  4  0  0  0  0
 15 46  1  0  0  0  0
 16 17  1  0  0  0  0
 16 20  4  0  0  0  0
 18 19  4  0  0  0  0
 18 47  1  0  0  0  0
 19 20  4  0  0  0  0
 19 21  1  0  0  0  0
 20 48  1  0  0  0  0
 21 22  1  0  0  0  0
 21 49  1  0  0  0  0
 21 50  1  0  0  0  0
 22 23  2  0  0  0  0
 22 24  1  0  0  0  0
 24 25  1  0  0  0  0
 24 51  1  0  0  0  0
 25 26  4  0  0  0  0
 25 34  4  0  0  0  0
 26 27  4  0  0  0  0
 26 31  4  0  0  0  0
 27 28  4  0  0  0  0
 27 52  1  0  0  0  0
 28 29  4  0  0  0  0
 28 53  1  0  0  0  0
 29 30  4  0  0  0  0
 29 54  1  0  0  0  0
 30 31  4  0  0  0  0
 30 55  1  0  0  0  0
 31 32  4  0  0  0  0
 32 33  4  0  0  0  0
 32 56  1  0  0  0  0
 33 34  4  0  0  0  0
 34 57  1  0  0  0  0
M  END
$$$$
