
     RDKit          3D

 46 47  0  0  0  0  0  0  0  0999 V2000
   -8.6498   -3.1609  -23.8013 C   0  0  0  0  0  0  0  0  0  0  0  0
   -8.8775   -1.8682  -23.0326 C   0  0  2  0  0  0  0  0  0  0  0  0
   -8.2312   -1.8424  -21.7265 N   0  0  0  0  0  0  0  0  0  0  0  0
   -6.9225   -1.4483  -21.6619 C   0  0  0  0  0  0  0  0  0  0  0  0
   -6.2686   -1.1773  -22.6537 O   0  0  0  0  0  0  0  0  0  0  0  0
   -6.3201   -1.3909  -20.2656 C   0  0  0  0  0  0  0  0  0  0  0  0
   -5.8415   -2.7082  -19.9274 O   0  0  0  0  0  0  0  0  0  0  0  0
   -6.3039   -3.2721  -18.4936 S   0  0  0  0  0  0  0  0  0  0  0  0
   -5.7127   -2.0993  -17.4613 N   0  0  0  0  0  0  0  0  0  0  0  0
   -7.7491   -3.2082  -18.4209 O   0  0  0  0  0  0  0  0  0  0  0  0
   -5.5654   -4.4981  -18.3379 O   0  0  0  0  0  0  0  0  0  0  0  0
  -10.3330   -1.4686  -22.9203 C   0  0  0  0  0  0  0  0  0  0  0  0
  -11.4165   -2.3436  -22.8465 C   0  0  0  0  0  0  0  0  0  0  0  0
  -12.7011   -1.8101  -22.7650 C   0  0  0  0  0  0  0  0  0  0  0  0
  -14.0495   -2.8973  -22.6275 Cl  0  0  0  0  0  0  0  0  0  0  0  0
  -12.9381   -0.4438  -22.8311 C   0  0  0  0  0  0  0  0  0  0  0  0
  -11.8574    0.4295  -22.9749 C   0  0  0  0  0  0  0  0  0  0  0  0
  -12.0298    1.8629  -23.3296 C   0  0  0  0  0  0  0  0  0  0  0  0
  -12.9287    2.7426  -22.7157 C   0  0  0  0  0  0  0  0  0  0  0  0
  -13.0925    4.0404  -23.2073 C   0  0  0  0  0  0  0  0  0  0  0  0
  -12.3426    4.4525  -24.3116 C   0  0  0  0  0  0  0  0  0  0  0  0
  -12.6762    5.9479  -25.2061 S   0  0  0  0  0  0  0  0  0  0  0  0
  -11.1601    6.3906  -25.7627 N   0  0  0  0  0  0  0  0  0  0  0  0
  -13.4296    5.6155  -26.4018 O   0  0  0  0  0  0  0  0  0  0  0  0
  -13.1635    6.9452  -24.2739 O   0  0  0  0  0  0  0  0  0  0  0  0
  -11.3895    3.6148  -24.8717 C   0  0  0  0  0  0  0  0  0  0  0  0
  -11.2446    2.3381  -24.3857 C   0  0  0  0  0  0  0  0  0  0  0  0
  -10.5710   -0.1010  -22.9652 C   0  0  0  0  0  0  0  0  0  0  0  0
   -9.1434   -4.0116  -23.3211 H   0  0  0  0  0  0  0  0  0  0  0  0
   -7.5739   -3.3525  -23.8638 H   0  0  0  0  0  0  0  0  0  0  0  0
   -9.0425   -3.0522  -24.8183 H   0  0  0  0  0  0  0  0  0  0  0  0
   -8.3743   -1.0696  -23.5904 H   0  0  0  0  0  0  0  0  0  0  0  0
   -8.6439   -2.3616  -20.9594 H   0  0  0  0  0  0  0  0  0  0  0  0
   -5.4520   -0.7344  -20.2721 H   0  0  0  0  0  0  0  0  0  0  0  0
   -7.0549   -1.0413  -19.5351 H   0  0  0  0  0  0  0  0  0  0  0  0
   -4.8983   -2.4442  -16.9572 H   0  0  0  0  0  0  0  0  0  0  0  0
   -6.4418   -1.8509  -16.7962 H   0  0  0  0  0  0  0  0  0  0  0  0
  -11.2865   -3.4231  -22.8550 H   0  0  0  0  0  0  0  0  0  0  0  0
  -13.9546   -0.0636  -22.8134 H   0  0  0  0  0  0  0  0  0  0  0  0
  -13.4589    2.4142  -21.8223 H   0  0  0  0  0  0  0  0  0  0  0  0
  -13.8098    4.7226  -22.7609 H   0  0  0  0  0  0  0  0  0  0  0  0
  -10.7607    7.1562  -25.2342 H   0  0  0  0  0  0  0  0  0  0  0  0
  -11.1880    6.5837  -26.7583 H   0  0  0  0  0  0  0  0  0  0  0  0
  -10.7640    3.9695  -25.6811 H   0  0  0  0  0  0  0  0  0  0  0  0
  -10.5180    1.6863  -24.8565 H   0  0  0  0  0  0  0  0  0  0  0  0
   -9.7178    0.5766  -23.0084 H   0  0  0  0  0  0  0  0  0  0  0  0
  1  2  1  0
  2  3  1  0
  3  4  1  0
  4  5  2  0
  4  6  1  0
  6  7  1  0
  7  8  1  0
  8  9  1  0
  8 10  2  0
  8 11  2  0
  2 12  1  0
 12 13  2  0
 13 14  1  0
 14 15  1  0
 14 16  2  0
 16 17  1  0
 17 18  1  0
 18 19  2  0
 19 20  1  0
 20 21  2  0
 21 22  1  0
 22 23  1  0
 22 24  2  0
 22 25  2  0
 21 26  1  0
 26 27  2  0
 17 28  2  0
 28 12  1  0
 27 18  1  0
  1 29  1  0
  1 30  1  0
  1 31  1  0
  2 32  1  6
  3 33  1  0
  6 34  1  0
  6 35  1  0
  9 36  1  0
  9 37  1  0
 13 38  1  0
 16 39  1  0
 19 40  1  0
 20 41  1  0
 23 42  1  0
 23 43  1  0
 26 44  1  0
 27 45  1  0
 28 46  1  0
M  END
