LIG(A-306)
     RDKit          3D

 34 38  0  0  0  0  0  0  0  0999 V2000
   13.7850    7.8148   22.8466 O   0  0  0  0  0  0  0  0  0  0  0  0
   13.0354    7.1816   23.5865 C   0  0  0  0  0  0  0  0  0  0  0  0
   12.1411    7.9916   24.4582 C   0  0  0  0  0  0  0  0  0  0  0  0
   10.8068    7.6905   24.5002 O   0  0  0  0  0  0  0  0  0  0  0  0
   10.2212    8.6500   25.2933 C   0  0  0  0  0  0  0  0  0  0  0  0
   11.1329    9.5134   25.7324 C   0  0  0  0  0  0  0  0  0  0  0  0
   12.3871    9.0969   25.1998 C   0  0  0  0  0  0  0  0  0  0  0  0
   13.0218    5.8367   23.6181 N   0  0  0  0  0  0  0  0  0  0  0  0
   13.7220    5.0822   22.5661 C   0  0  0  0  0  0  0  0  0  0  0  0
   12.9242    3.8612   22.1568 C   0  0  0  0  0  0  0  0  0  0  0  0
   12.4854    5.0479   24.7408 C   0  0  0  0  0  0  0  0  0  0  0  0
   11.7636    3.8046   24.2387 C   0  0  0  0  0  0  0  0  0  0  0  0
   12.6308    3.0463   23.3357 N   0  0  0  0  0  0  0  0  0  0  0  0
   12.3263    1.7063   23.0912 C   0  0  0  0  0  0  0  0  0  0  0  0
   13.3397    0.7932   22.7791 C   0  0  0  0  0  0  0  0  0  0  0  0
   12.9990   -0.4895   22.3933 C   0  0  0  0  0  0  0  0  0  0  0  0
   14.2599   -1.5818   21.8981 Cl  0  0  0  0  0  0  0  0  0  0  0  0
   10.9934    1.2787   23.0499 C   0  0  0  0  0  0  0  0  0  0  0  0
   10.6707   -0.0171   22.6492 C   0  0  0  0  0  0  0  0  0  0  0  0
   11.6871   -0.9082   22.3249 C   0  0  0  0  0  0  0  0  0  0  0  0
    9.2238   -0.4423   22.5328 C   0  0  0  0  0  0  0  0  0  0  0  0
    8.5094    0.2643   21.3961 C   0  0  0  0  0  0  0  0  0  0  0  0
    8.7656    1.4275   21.0934 O   0  0  0  0  0  0  0  0  0  0  0  0
    7.6876   -0.5073   20.6716 N   0  0  0  0  0  0  0  0  0  0  0  0
    6.6299   -0.1472   19.8215 C   0  0  0  0  0  0  0  0  0  0  0  0
    5.6265    0.7923   20.2255 C   0  0  0  0  0  0  0  0  0  0  0  0
    5.2265    0.9900   21.5744 C   0  0  0  0  0  0  0  0  0  0  0  0
    4.1734    1.8049   21.8870 C   0  0  0  0  0  0  0  0  0  0  0  0
    3.4680    2.4662   20.8905 C   0  0  0  0  0  0  0  0  0  0  0  0
    3.8148    2.3166   19.5784 C   0  0  0  0  0  0  0  0  0  0  0  0
    4.8961    1.4745   19.2079 C   0  0  0  0  0  0  0  0  0  0  0  0
    5.2312    1.2047   17.8643 C   0  0  0  0  0  0  0  0  0  0  0  0
    6.1535    0.3361   17.4899 N   0  0  0  0  0  0  0  0  0  0  0  0
    6.7969   -0.3335   18.4504 C   0  0  0  0  0  0  0  0  0  0  0  0
  1  2  2  0
  2  3  1  0
  2  8  1  0
  3  4  1  0
  3  7  2  0
  4  5  1  0
  5  6  2  0
  6  7  1  0
  8  9  1  0
  8 11  1  0
  9 10  1  0
 10 13  1  0
 11 12  1  0
 12 13  1  0
 13 14  1  0
 14 15  2  0
 14 18  1  0
 15 16  1  0
 16 17  1  0
 16 20  2  0
 18 19  2  0
 19 20  1  0
 19 21  1  0
 21 22  1  0
 22 23  2  0
 22 24  1  0
 24 25  1  0
 25 26  1  0
 25 34  2  0
 26 27  2  0
 26 31  1  0
 27 28  1  0
 28 29  2  0
 29 30  1  0
 30 31  2  0
 31 32  1  0
 32 33  2  0
 33 34  1  0
M  END
$$$$
