mobile
  PyMOL3.1          3D                             0

 42 46  0  0  0  0  0  0  0  0999 V2000
   -9.0459    0.2150  -21.3641 O   0  0  0  0  0  0  0  0  0  0  0  0
   -8.5606   -0.8269  -21.7676 C   0  0  0  0  0  0  0  0  0  0  0  0
   -8.9707   -1.5912  -23.0310 C   0  0  0  0  0  0  0  0  0  0  0  0
   -8.2796   -0.8841  -24.2259 C   0  0  0  0  0  0  0  0  0  0  0  0
   -9.2454   -0.5362  -25.3428 C   0  0  0  0  0  0  0  0  0  0  0  0
  -10.4301    0.1072  -24.8442 O   0  0  0  0  0  0  0  0  0  0  0  0
  -10.5011   -1.6101  -23.1383 C   0  0  0  0  0  0  0  0  0  0  0  0
  -11.1350   -0.7160  -24.0051 C   0  0  0  0  0  0  0  0  0  0  0  0
  -12.5142   -0.6469  -24.1051 C   0  0  0  0  0  0  0  0  0  0  0  0
  -13.2900   -1.4682  -23.3096 C   0  0  0  0  0  0  0  0  0  0  0  0
  -11.2953   -2.4463  -22.3537 C   0  0  0  0  0  0  0  0  0  0  0  0
  -12.6735   -2.3244  -22.4177 C   0  0  0  0  0  0  0  0  0  0  0  0
  -13.6455   -3.1081  -21.2024 Cl  0  0  0  0  0  0  0  0  0  0  0  0
   -7.5167   -1.5343  -21.1587 N   0  0  0  0  0  0  0  0  0  0  0  0
   -7.2810   -2.7694  -21.7582 C   0  0  0  0  0  0  0  0  0  0  0  0
   -6.3471   -3.5032  -21.4696 O   0  0  0  0  0  0  0  0  0  0  0  0
   -8.3415   -2.9835  -22.8060 C   0  0  0  0  0  0  0  0  0  0  0  0
   -6.7225   -1.0118  -20.0783 C   0  0  0  0  0  0  0  0  0  0  0  0
   -5.6470   -0.1312  -20.3707 C   0  0  0  0  0  0  0  0  0  0  0  0
   -5.2040    0.1923  -21.6804 C   0  0  0  0  0  0  0  0  0  0  0  0
   -4.1574    1.0500  -21.8764 C   0  0  0  0  0  0  0  0  0  0  0  0
   -3.5061    1.6301  -20.7954 C   0  0  0  0  0  0  0  0  0  0  0  0
   -3.8984    1.3535  -19.5182 C   0  0  0  0  0  0  0  0  0  0  0  0
   -4.9733    0.4659  -19.2698 C   0  0  0  0  0  0  0  0  0  0  0  0
   -5.4283    0.1419  -17.9651 C   0  0  0  0  0  0  0  0  0  0  0  0
   -6.4342   -0.6852  -17.7074 N   0  0  0  0  0  0  0  0  0  0  0  0
   -7.0604   -1.2466  -18.7516 C   0  0  0  0  0  0  0  0  0  0  0  0
   -7.8135    0.0441  -23.8627 H   0  0  0  0  0  0  0  0  0  0  0  0
   -7.5031   -1.5514  -24.6281 H   0  0  0  0  0  0  0  0  0  0  0  0
   -8.7439    0.1413  -26.0494 H   0  0  0  0  0  0  0  0  0  0  0  0
   -9.5355   -1.4601  -25.8638 H   0  0  0  0  0  0  0  0  0  0  0  0
  -12.9776    0.0413  -24.7962 H   0  0  0  0  0  0  0  0  0  0  0  0
  -14.3669   -1.4410  -23.3834 H   0  0  0  0  0  0  0  0  0  0  0  0
  -10.8412   -3.1797  -21.7037 H   0  0  0  0  0  0  0  0  0  0  0  0
   -9.0996   -3.6965  -22.4488 H   0  0  0  0  0  0  0  0  0  0  0  0
   -7.8937   -3.3603  -23.7369 H   0  0  0  0  0  0  0  0  0  0  0  0
   -5.7003   -0.2448  -22.5342 H   0  0  0  0  0  0  0  0  0  0  0  0
   -3.8346    1.2792  -22.8810 H   0  0  0  0  0  0  0  0  0  0  0  0
   -2.6810    2.3061  -20.9673 H   0  0  0  0  0  0  0  0  0  0  0  0
   -3.3836    1.8157  -18.6898 H   0  0  0  0  0  0  0  0  0  0  0  0
   -4.9224    0.5971  -17.1276 H   0  0  0  0  0  0  0  0  0  0  0  0
   -7.8776   -1.9228  -18.5497 H   0  0  0  0  0  0  0  0  0  0  0  0
  1  2  2  0  0  0  0
  2  3  1  0  0  0  0
  2 14  1  0  0  0  0
  3  4  1  0  0  0  0
  3  7  1  0  0  0  0
  3 17  1  0  0  0  0
  4  5  1  0  0  0  0
  4 28  1  0  0  0  0
  4 29  1  0  0  0  0
  5  6  1  0  0  0  0
  5 30  1  0  0  0  0
  5 31  1  0  0  0  0
  6  8  1  0  0  0  0
  7  8  4  0  0  0  0
  7 11  4  0  0  0  0
  8  9  4  0  0  0  0
  9 10  4  0  0  0  0
  9 32  1  0  0  0  0
 10 12  4  0  0  0  0
 10 33  1  0  0  0  0
 11 12  4  0  0  0  0
 11 34  1  0  0  0  0
 12 13  1  0  0  0  0
 14 15  1  0  0  0  0
 14 18  1  0  0  0  0
 15 16  2  0  0  0  0
 15 17  1  0  0  0  0
 17 35  1  0  0  0  0
 17 36  1  0  0  0  0
 18 19  4  0  0  0  0
 18 27  4  0  0  0  0
 19 20  4  0  0  0  0
 19 24  4  0  0  0  0
 20 21  4  0  0  0  0
 20 37  1  0  0  0  0
 21 22  4  0  0  0  0
 21 38  1  0  0  0  0
 22 23  4  0  0  0  0
 22 39  1  0  0  0  0
 23 24  4  0  0  0  0
 23 40  1  0  0  0  0
 24 25  4  0  0  0  0
 25 26  4  0  0  0  0
 25 41  1  0  0  0  0
 26 27  4  0  0  0  0
 27 42  1  0  0  0  0
M  END
$$$$
