
     RDKit          3D

 46 50  0  0  0  0  0  0  0  0999 V2000
  -14.3592   -4.2089  -22.3097 N   0  0  0  0  0  0  0  0  0  0  0  0
  -13.5963   -3.1655  -21.2545 S   0  0  0  0  0  0  0  0  0  0  0  0
  -12.7139   -3.9605  -20.4187 O   0  0  0  0  0  0  0  0  0  0  0  0
  -14.6322   -2.3458  -20.6497 O   0  0  0  0  0  0  0  0  0  0  0  0
  -12.6288   -2.2027  -22.3720 C   0  0  0  0  0  0  0  0  0  0  0  0
  -13.2404   -1.4526  -23.3753 C   0  0  0  0  0  0  0  0  0  0  0  0
  -12.4557   -0.7327  -24.2599 C   0  0  0  0  0  0  0  0  0  0  0  0
  -11.0651   -0.7306  -24.1230 C   0  0  0  0  0  0  0  0  0  0  0  0
  -10.4590   -1.5008  -23.1264 C   0  0  0  0  0  0  0  0  0  0  0  0
  -11.2521   -2.2140  -22.2362 C   0  0  0  0  0  0  0  0  0  0  0  0
   -8.9624   -1.5304  -22.9601 C   0  0  2  0  0  0  0  0  0  0  0  0
   -8.2852   -0.9453  -24.2135 C   0  0  0  0  0  0  0  0  0  0  0  0
   -9.0080    0.3299  -24.6098 C   0  0  0  0  0  0  0  0  0  0  0  0
  -10.3545    0.0394  -24.9900 O   0  0  0  0  0  0  0  0  0  0  0  0
   -8.4452   -2.8533  -22.6322 N   0  0  0  0  0  0  0  0  0  0  0  0
   -7.5079   -2.8274  -21.6270 C   0  0  0  0  0  0  0  0  0  0  0  0
   -6.7689   -3.7081  -21.2565 O   0  0  0  0  0  0  0  0  0  0  0  0
   -7.5732   -1.5379  -21.0716 N   0  0  0  0  0  0  0  0  0  0  0  0
   -6.6607   -1.0650  -20.0917 C   0  0  0  0  0  0  0  0  0  0  0  0
   -6.8354   -1.4360  -18.7908 C   0  0  0  0  0  0  0  0  0  0  0  0
   -6.0550   -1.0135  -17.7651 N   0  0  0  0  0  0  0  0  0  0  0  0
   -5.0756   -0.1865  -18.0450 C   0  0  0  0  0  0  0  0  0  0  0  0
   -4.7743    0.2750  -19.3591 C   0  0  0  0  0  0  0  0  0  0  0  0
   -3.7426    1.2216  -19.6097 C   0  0  0  0  0  0  0  0  0  0  0  0
   -3.4590    1.5992  -20.8928 C   0  0  0  0  0  0  0  0  0  0  0  0
   -4.1667    1.0230  -21.9766 C   0  0  0  0  0  0  0  0  0  0  0  0
   -5.1861    0.1300  -21.7597 C   0  0  0  0  0  0  0  0  0  0  0  0
   -5.5484   -0.2272  -20.4323 C   0  0  0  0  0  0  0  0  0  0  0  0
   -8.5348   -0.7516  -21.7044 C   0  0  0  0  0  0  0  0  0  0  0  0
   -8.9168    0.3194  -21.3149 O   0  0  0  0  0  0  0  0  0  0  0  0
  -15.1844   -4.5552  -21.8218 H   0  0  0  0  0  0  0  0  0  0  0  0
  -13.7558   -4.9997  -22.5114 H   0  0  0  0  0  0  0  0  0  0  0  0
  -14.3230   -1.4096  -23.4489 H   0  0  0  0  0  0  0  0  0  0  0  0
  -12.9089   -0.1616  -25.0581 H   0  0  0  0  0  0  0  0  0  0  0  0
  -10.7944   -2.7758  -21.4317 H   0  0  0  0  0  0  0  0  0  0  0  0
   -8.3545   -1.6843  -25.0209 H   0  0  0  0  0  0  0  0  0  0  0  0
   -7.2223   -0.7655  -24.0125 H   0  0  0  0  0  0  0  0  0  0  0  0
   -8.9980    1.0398  -23.7713 H   0  0  0  0  0  0  0  0  0  0  0  0
   -8.5474    0.7979  -25.4814 H   0  0  0  0  0  0  0  0  0  0  0  0
   -8.3222   -3.5432  -23.3594 H   0  0  0  0  0  0  0  0  0  0  0  0
   -7.6629   -2.0992  -18.5466 H   0  0  0  0  0  0  0  0  0  0  0  0
   -4.4721    0.1583  -17.2024 H   0  0  0  0  0  0  0  0  0  0  0  0
   -3.1899    1.6428  -18.7702 H   0  0  0  0  0  0  0  0  0  0  0  0
   -2.6712    2.3229  -21.0941 H   0  0  0  0  0  0  0  0  0  0  0  0
   -3.9231    1.3043  -22.9959 H   0  0  0  0  0  0  0  0  0  0  0  0
   -5.7047   -0.3295  -22.5983 H   0  0  0  0  0  0  0  0  0  0  0  0
  1  2  1  0
  2  3  2  0
  2  4  2  0
  2  5  1  0
  5  6  2  0
  6  7  1  0
  7  8  2  0
  8  9  1  0
  9 10  2  0
  9 11  1  0
 11 12  1  0
 12 13  1  0
 13 14  1  0
 11 15  1  1
 15 16  1  0
 16 17  2  0
 16 18  1  0
 18 19  1  0
 19 20  2  0
 20 21  1  0
 21 22  2  0
 22 23  1  0
 23 24  2  0
 24 25  1  0
 25 26  2  0
 26 27  1  0
 27 28  2  0
 18 29  1  0
 29 30  2  0
 10  5  1  0
 29 11  1  0
 14  8  1  0
 28 19  1  0
 28 23  1  0
  1 31  1  0
  1 32  1  0
  6 33  1  0
  7 34  1  0
 10 35  1  0
 12 36  1  0
 12 37  1  0
 13 38  1  0
 13 39  1  0
 15 40  1  0
 20 41  1  0
 22 42  1  0
 24 43  1  0
 25 44  1  0
 26 45  1  0
 27 46  1  0
M  END
