
     RDKit          3D

 60 64  0  0  0  0  0  0  0  0999 V2000
   -7.0212    3.6296  -22.4835 C   0  0  0  0  0  0  0  0  0  0  0  0
   -7.7852    2.6763  -23.2617 N   0  0  0  0  0  0  0  0  0  0  0  0
   -7.4950    2.5179  -24.5719 C   0  0  0  0  0  0  0  0  0  0  0  0
   -6.7268    3.2444  -25.1894 O   0  0  0  0  0  0  0  0  0  0  0  0
   -8.1623    1.3608  -25.3237 C   0  0  0  0  0  0  0  0  0  0  0  0
   -8.9883    0.4613  -24.5592 N   0  0  0  0  0  0  0  0  0  0  0  0
   -8.5110   -0.8831  -24.2813 C   0  0  0  0  0  0  0  0  0  0  0  0
   -9.0682   -1.4178  -22.9378 C   0  0  2  0  0  0  0  0  0  0  0  0
   -8.4693   -0.5715  -21.7846 C   0  0  0  0  0  0  0  0  0  0  0  0
   -8.7600    0.5809  -21.5111 O   0  0  0  0  0  0  0  0  0  0  0  0
   -7.5089   -1.3086  -21.1364 N   0  0  0  0  0  0  0  0  0  0  0  0
   -6.6589   -0.7872  -20.1185 C   0  0  0  0  0  0  0  0  0  0  0  0
   -6.8838   -1.1482  -18.8129 C   0  0  0  0  0  0  0  0  0  0  0  0
   -6.1138   -0.7659  -17.7650 N   0  0  0  0  0  0  0  0  0  0  0  0
   -5.0875    0.0102  -18.0134 C   0  0  0  0  0  0  0  0  0  0  0  0
   -4.7427    0.4717  -19.3161 C   0  0  0  0  0  0  0  0  0  0  0  0
   -3.6586    1.3640  -19.5279 C   0  0  0  0  0  0  0  0  0  0  0  0
   -3.3266    1.7600  -20.7923 C   0  0  0  0  0  0  0  0  0  0  0  0
   -4.0563    1.2857  -21.9043 C   0  0  0  0  0  0  0  0  0  0  0  0
   -5.1383    0.4586  -21.7228 C   0  0  0  0  0  0  0  0  0  0  0  0
   -5.5286    0.0460  -20.4162 C   0  0  0  0  0  0  0  0  0  0  0  0
   -7.2255   -2.5638  -21.8066 C   0  0  0  0  0  0  0  0  0  0  0  0
   -8.5276   -2.8257  -22.5683 C   0  0  2  0  0  0  0  0  0  0  0  0
   -8.3709   -3.8226  -23.7145 C   0  0  0  0  0  0  0  0  0  0  0  0
   -9.5947   -4.0297  -24.3935 O   0  0  0  0  0  0  0  0  0  0  0  0
  -10.3078   -5.1667  -23.9691 C   0  0  0  0  0  0  0  0  0  0  0  0
  -10.5768   -1.3043  -23.0410 C   0  0  0  0  0  0  0  0  0  0  0  0
  -11.4649   -2.2623  -22.5444 C   0  0  0  0  0  0  0  0  0  0  0  0
  -12.8206   -1.9913  -22.5080 C   0  0  0  0  0  0  0  0  0  0  0  0
  -13.8691   -3.1378  -21.7131 Cl  0  0  0  0  0  0  0  0  0  0  0  0
  -13.3599   -0.8125  -23.0230 C   0  0  0  0  0  0  0  0  0  0  0  0
  -12.4963    0.1023  -23.5881 C   0  0  0  0  0  0  0  0  0  0  0  0
  -11.1273   -0.1495  -23.6154 C   0  0  0  0  0  0  0  0  0  0  0  0
  -10.2539    0.8743  -24.2552 C   0  0  0  0  0  0  0  0  0  0  0  0
  -10.6421    2.0171  -24.4796 O   0  0  0  0  0  0  0  0  0  0  0  0
   -5.9606    3.5532  -22.7464 H   0  0  0  0  0  0  0  0  0  0  0  0
   -7.3222    4.6727  -22.6494 H   0  0  0  0  0  0  0  0  0  0  0  0
   -7.1452    3.3855  -21.4232 H   0  0  0  0  0  0  0  0  0  0  0  0
   -8.3159    1.9823  -22.7424 H   0  0  0  0  0  0  0  0  0  0  0  0
   -7.3508    0.7915  -25.7829 H   0  0  0  0  0  0  0  0  0  0  0  0
   -8.7440    1.7989  -26.1393 H   0  0  0  0  0  0  0  0  0  0  0  0
   -8.8138   -1.5725  -25.0809 H   0  0  0  0  0  0  0  0  0  0  0  0
   -7.4165   -0.8574  -24.2380 H   0  0  0  0  0  0  0  0  0  0  0  0
   -7.7411   -1.7739  -18.5651 H   0  0  0  0  0  0  0  0  0  0  0  0
   -4.4819    0.3382  -17.1672 H   0  0  0  0  0  0  0  0  0  0  0  0
   -3.1064    1.7216  -18.6625 H   0  0  0  0  0  0  0  0  0  0  0  0
   -2.5016    2.4458  -20.9527 H   0  0  0  0  0  0  0  0  0  0  0  0
   -3.7848    1.6086  -22.9068 H   0  0  0  0  0  0  0  0  0  0  0  0
   -5.7054    0.1227  -22.5865 H   0  0  0  0  0  0  0  0  0  0  0  0
   -6.9923   -3.3304  -21.0633 H   0  0  0  0  0  0  0  0  0  0  0  0
   -6.3648   -2.4783  -22.4948 H   0  0  0  0  0  0  0  0  0  0  0  0
   -9.2282   -3.2358  -21.8350 H   0  0  0  0  0  0  0  0  0  0  0  0
   -7.6692   -3.4183  -24.4542 H   0  0  0  0  0  0  0  0  0  0  0  0
   -7.9487   -4.7792  -23.3566 H   0  0  0  0  0  0  0  0  0  0  0  0
  -11.2751   -5.1500  -24.4782 H   0  0  0  0  0  0  0  0  0  0  0  0
  -10.4876   -5.1782  -22.8816 H   0  0  0  0  0  0  0  0  0  0  0  0
   -9.7837   -6.0978  -24.2410 H   0  0  0  0  0  0  0  0  0  0  0  0
  -11.1249   -3.2061  -22.1344 H   0  0  0  0  0  0  0  0  0  0  0  0
  -14.4271   -0.6274  -22.9545 H   0  0  0  0  0  0  0  0  0  0  0  0
  -12.8607    1.0396  -23.9951 H   0  0  0  0  0  0  0  0  0  0  0  0
  1  2  1  0
  2  3  1  0
  3  4  2  0
  3  5  1  0
  5  6  1  0
  6  7  1  0
  8  7  1  6
  8  9  1  0
  9 10  2  0
  9 11  1  0
 11 12  1  0
 12 13  2  0
 13 14  1  0
 14 15  2  0
 15 16  1  0
 16 17  2  0
 17 18  1  0
 18 19  2  0
 19 20  1  0
 20 21  2  0
 11 22  1  0
 22 23  1  0
 23 24  1  0
 24 25  1  0
 25 26  1  0
  8 27  1  0
 27 28  2  0
 28 29  1  0
 29 30  1  0
 29 31  2  0
 31 32  1  0
 32 33  2  0
 33 34  1  0
 34 35  2  0
 34  6  1  0
 23  8  1  0
 33 27  1  0
 21 12  1  0
 21 16  1  0
  1 36  1  0
  1 37  1  0
  1 38  1  0
  2 39  1  0
  5 40  1  0
  5 41  1  0
  7 42  1  0
  7 43  1  0
 13 44  1  0
 15 45  1  0
 17 46  1  0
 18 47  1  0
 19 48  1  0
 20 49  1  0
 22 50  1  0
 22 51  1  0
 23 52  1  1
 24 53  1  0
 24 54  1  0
 26 55  1  0
 26 56  1  0
 26 57  1  0
 28 58  1  0
 31 59  1  0
 32 60  1  0
M  END
