
     RDKit          3D

 64 68  0  0  0  0  0  0  0  0999 V2000
    9.0741   -1.2574   20.8920 C   0  0  0  0  0  0  0  0  0  0  0  0
    7.6679   -1.2703   21.4924 C   0  0  0  0  0  0  0  0  0  0  0  0
    6.8789    0.0292   21.2840 C   0  0  0  0  0  0  0  0  0  0  0  0
    6.8437    0.8143   22.2237 O   0  0  0  0  0  0  0  0  0  0  0  0
    6.0395    0.1627   20.1757 N   0  0  0  0  0  0  0  0  0  0  0  0
    6.2764   -0.6673   18.9971 C   0  0  0  0  0  0  0  0  0  0  0  0
    5.8694    0.0703   17.7191 C   0  0  0  0  0  0  0  0  0  0  0  0
    4.4352    0.6018   17.7336 C   0  0  0  0  0  0  0  0  0  0  0  0
    4.0311    1.0812   19.1006 C   0  0  0  0  0  0  0  0  0  0  0  0
    2.8253    1.7806   19.1996 C   0  0  0  0  0  0  0  0  0  0  0  0
    2.4113    2.2879   20.4257 C   0  0  0  0  0  0  0  0  0  0  0  0
    3.1682    2.0748   21.5706 C   0  0  0  0  0  0  0  0  0  0  0  0
    2.8338    2.7824   22.7197 N   0  0  0  0  0  0  0  0  0  0  0  0
    2.8462    4.2410   22.5785 C   0  0  0  0  0  0  0  0  0  0  0  0
    4.2706    4.7381   22.6401 C   0  0  0  0  0  0  0  0  0  0  0  0
    5.0303    4.8562   21.4646 C   0  0  0  0  0  0  0  0  0  0  0  0
    6.3519    5.3088   21.5216 C   0  0  0  0  0  0  0  0  0  0  0  0
    6.9190    5.6553   22.7522 C   0  0  0  0  0  0  0  0  0  0  0  0
    6.1761    5.5331   23.9303 C   0  0  0  0  0  0  0  0  0  0  0  0
    6.9559    5.9733   25.6163 Br  0  0  0  0  0  0  0  0  0  0  0  0
    4.8589    5.0677   23.8705 C   0  0  0  0  0  0  0  0  0  0  0  0
    2.8000    2.1996   23.9848 C   0  0  0  0  0  0  0  0  0  0  0  0
    2.7821    2.9262   24.9731 O   0  0  0  0  0  0  0  0  0  0  0  0
    2.6636    0.6771   24.1873 C   0  0  0  0  0  0  0  0  0  0  0  0
    1.4261    0.2923   25.0073 C   0  0  0  0  0  0  0  0  0  0  0  0
    1.5907   -0.3089   26.2710 C   0  0  0  0  0  0  0  0  0  0  0  0
    0.5749   -0.6454   27.0806 N   0  0  0  0  0  0  0  0  0  0  0  0
   -0.6696   -0.3895   26.6523 C   0  0  0  0  0  0  0  0  0  0  0  0
   -0.9562    0.1867   25.4106 C   0  0  0  0  0  0  0  0  0  0  0  0
   -2.2855    0.4134   25.0137 C   0  0  0  0  0  0  0  0  0  0  0  0
   -2.5543    0.9473   23.7520 C   0  0  0  0  0  0  0  0  0  0  0  0
   -1.5041    1.2607   22.8855 C   0  0  0  0  0  0  0  0  0  0  0  0
   -0.1760    1.0645   23.2918 C   0  0  0  0  0  0  0  0  0  0  0  0
    0.1115    0.5255   24.5560 C   0  0  0  0  0  0  0  0  0  0  0  0
    4.3500    1.3382   21.4941 C   0  0  0  0  0  0  0  0  0  0  0  0
    4.8194    0.8639   20.2569 C   0  0  0  0  0  0  0  0  0  0  0  0
    9.6084   -2.1744   21.1662 H   0  0  0  0  0  0  0  0  0  0  0  0
    9.0131   -1.2150   19.8037 H   0  0  0  0  0  0  0  0  0  0  0  0
    9.6486   -0.3987   21.2547 H   0  0  0  0  0  0  0  0  0  0  0  0
    7.7401   -1.4685   22.5655 H   0  0  0  0  0  0  0  0  0  0  0  0
    7.1010   -2.0920   21.0502 H   0  0  0  0  0  0  0  0  0  0  0  0
    7.3381   -0.9242   18.9111 H   0  0  0  0  0  0  0  0  0  0  0  0
    5.7195   -1.6024   19.0875 H   0  0  0  0  0  0  0  0  0  0  0  0
    5.9565   -0.6176   16.8860 H   0  0  0  0  0  0  0  0  0  0  0  0
    6.5553    0.9055   17.5571 H   0  0  0  0  0  0  0  0  0  0  0  0
    4.3509    1.4322   17.0189 H   0  0  0  0  0  0  0  0  0  0  0  0
    3.7456   -0.1750   17.4078 H   0  0  0  0  0  0  0  0  0  0  0  0
    2.2199    1.9479   18.3152 H   0  0  0  0  0  0  0  0  0  0  0  0
    1.5049    2.8774   20.5087 H   0  0  0  0  0  0  0  0  0  0  0  0
    2.2413    4.7111   23.3640 H   0  0  0  0  0  0  0  0  0  0  0  0
    2.4055    4.5267   21.6137 H   0  0  0  0  0  0  0  0  0  0  0  0
    4.5920    4.5994   20.5031 H   0  0  0  0  0  0  0  0  0  0  0  0
    6.9358    5.3900   20.6105 H   0  0  0  0  0  0  0  0  0  0  0  0
    7.9457    6.0021   22.7964 H   0  0  0  0  0  0  0  0  0  0  0  0
    4.2893    4.9593   24.7881 H   0  0  0  0  0  0  0  0  0  0  0  0
    2.6428    0.1783   23.2188 H   0  0  0  0  0  0  0  0  0  0  0  0
    3.5631    0.3170   24.6956 H   0  0  0  0  0  0  0  0  0  0  0  0
    2.6025   -0.5038   26.6124 H   0  0  0  0  0  0  0  0  0  0  0  0
   -1.4926   -0.6683   27.3003 H   0  0  0  0  0  0  0  0  0  0  0  0
   -3.1147    0.1708   25.6750 H   0  0  0  0  0  0  0  0  0  0  0  0
   -3.5823    1.1049   23.4385 H   0  0  0  0  0  0  0  0  0  0  0  0
   -1.7310    1.6488   21.8957 H   0  0  0  0  0  0  0  0  0  0  0  0
    0.6313    1.3208   22.6147 H   0  0  0  0  0  0  0  0  0  0  0  0
    4.9094    1.1808   22.4085 H   0  0  0  0  0  0  0  0  0  0  0  0
  1  2  1  0
  2  3  1  0
  3  4  2  0
  3  5  1  0
  5  6  1  0
  6  7  1  0
  7  8  1  0
  8  9  1  0
  9 10  2  0
 10 11  1  0
 11 12  2  0
 12 13  1  0
 13 14  1  0
 14 15  1  0
 15 16  2  0
 16 17  1  0
 17 18  2  0
 18 19  1  0
 19 20  1  0
 19 21  2  0
 13 22  1  0
 22 23  2  0
 22 24  1  0
 24 25  1  0
 25 26  2  0
 26 27  1  0
 27 28  2  0
 28 29  1  0
 29 30  2  0
 30 31  1  0
 31 32  2  0
 32 33  1  0
 33 34  2  0
 12 35  1  0
 35 36  2  0
 36  5  1  0
 36  9  1  0
 21 15  1  0
 34 25  1  0
 34 29  1  0
  1 37  1  0
  1 38  1  0
  1 39  1  0
  2 40  1  0
  2 41  1  0
  6 42  1  0
  6 43  1  0
  7 44  1  0
  7 45  1  0
  8 46  1  0
  8 47  1  0
 10 48  1  0
 11 49  1  0
 14 50  1  0
 14 51  1  0
 16 52  1  0
 17 53  1  0
 18 54  1  0
 21 55  1  0
 24 56  1  0
 24 57  1  0
 26 58  1  0
 28 59  1  0
 30 60  1  0
 31 61  1  0
 32 62  1  0
 33 63  1  0
 35 64  1  0
M  END
$$$$
