complex-MERS
  PyMOL184          3D                             0

 31 33  0  0  0  0  0  0  0  0999 V2000
    6.2119    0.2619   18.9360 H   0  0  0  0  0  0  0  0  0  0  0  0
    4.9791    0.4374   20.2074 H   0  0  0  0  0  0  0  0  0  0  0  0
    5.4887   -1.1844   19.6809 H   0  0  0  0  0  0  0  0  0  0  0  0
   10.6020   -0.1620   23.6280 H   0  0  0  0  0  0  0  0  0  0  0  0
    8.4890    0.5610   22.1460 N   0  0  0  0  0  0  0  0  0  0  0  0
   12.5090   -1.7370   23.9320 C   0  0  0  0  0  0  0  0  0  0  0  0
    7.5180    2.0650   20.7050 O   0  0  0  0  0  0  0  0  0  0  0  0
   12.8990   -1.2400   22.3080 Cl  0  0  0  0  0  0  0  0  0  0  0  0
   13.5470   -2.1980   24.7260 C   0  0  0  0  0  0  0  0  0  0  0  0
    6.8530   -0.1620   20.8630 N   0  0  0  0  0  0  0  0  0  0  0  0
    6.5260   -2.2870   21.7700 O   0  0  0  0  0  0  0  0  0  0  0  0
   13.2690   -2.6650   26.0010 C   0  0  0  0  0  0  0  0  0  0  0  0
   11.9740   -2.6660   26.4670 C   0  0  0  0  0  0  0  0  0  0  0  0
   10.9440   -2.1820   25.6740 C   0  0  0  0  0  0  0  0  0  0  0  0
   11.1890   -1.7020   24.3880 C   0  0  0  0  0  0  0  0  0  0  0  0
   10.0580   -1.1050   23.5630 C   0  0  0  0  0  0  0  0  0  0  0  0
    8.5730   -1.2000   23.9970 C   0  0  0  0  0  0  0  0  0  0  0  0
    8.3790   -0.8540   22.4980 C   0  0  0  0  0  0  0  0  0  0  0  0
    9.6370   -1.7070   22.1980 C   0  0  0  0  0  0  0  0  0  0  0  0
    7.6370    0.9470   21.1780 C   0  0  0  0  0  0  0  0  0  0  0  0
    7.1510   -1.2460   21.6900 C   0  0  0  0  0  0  0  0  0  0  0  0
    5.8210   -0.1620   19.8610 C   0  0  0  0  0  0  0  0  0  0  0  0
    9.1380    1.1840   22.5830 H   0  0  0  0  0  0  0  0  0  0  0  0
   14.5610   -2.1950   24.3550 H   0  0  0  0  0  0  0  0  0  0  0  0
   14.0690   -3.0280   26.6290 H   0  0  0  0  0  0  0  0  0  0  0  0
   11.7590   -3.0440   27.4550 H   0  0  0  0  0  0  0  0  0  0  0  0
    9.9350   -2.1780   26.0590 H   0  0  0  0  0  0  0  0  0  0  0  0
    8.2240   -2.1930   24.3150 H   0  0  0  0  0  0  0  0  0  0  0  0
    8.2290   -0.4430   24.7170 H   0  0  0  0  0  0  0  0  0  0  0  0
   10.2350   -1.4000   21.3270 H   0  0  0  0  0  0  0  0  0  0  0  0
    9.4900   -2.7970   22.1740 H   0  0  0  0  0  0  0  0  0  0  0  0
  4 16  1  0  0  0  0
  5 18  1  0  0  0  0
  5 20  1  0  0  0  0
  5 23  1  0  0  0  0
  6  8  1  0  0  0  0
  6  9  4  0  0  0  0
  6 15  4  0  0  0  0
  7 20  2  0  0  0  0
  9 12  4  0  0  0  0
  9 24  1  0  0  0  0
 10 20  1  0  0  0  0
 10 21  1  0  0  0  0
 10 22  1  0  0  0  0
 11 21  2  0  0  0  0
 12 13  4  0  0  0  0
 12 25  1  0  0  0  0
 13 14  4  0  0  0  0
 13 26  1  0  0  0  0
 14 15  4  0  0  0  0
 14 27  1  0  0  0  0
 15 16  1  0  0  0  0
 16 17  1  0  0  0  0
 16 19  1  0  0  0  0
 17 18  1  0  0  0  0
 17 28  1  0  0  0  0
 17 29  1  0  0  0  0
 18 19  1  0  0  0  0
 18 21  1  0  0  0  0
 19 30  1  0  0  0  0
 19 31  1  0  0  0  0
  1 22  1  0  0  0  0
  2 22  1  0  0  0  0
  3 22  1  0  0  0  0
M  END
$$$$
