
     RDKit          3D

 70 76  0  0  0  0  0  0  0  0999 V2000
    8.4723   -1.3978   23.9477 C   0  0  0  0  0  0  0  0  0  0  0  0
    8.3882   -0.8252   22.5377 C   0  0  1  0  0  0  0  0  0  0  0  0
    7.1331   -1.2437   21.7593 C   0  0  0  0  0  0  0  0  0  0  0  0
    6.9245   -0.1375   20.8496 N   0  0  0  0  0  0  0  0  0  0  0  0
    5.9089   -0.0917   19.8645 C   0  0  0  0  0  0  0  0  0  0  0  0
    6.0548   -0.7717   18.6837 C   0  0  0  0  0  0  0  0  0  0  0  0
    5.2107   -0.6628   17.6297 N   0  0  0  0  0  0  0  0  0  0  0  0
    4.1599    0.1135   17.7669 C   0  0  0  0  0  0  0  0  0  0  0  0
    3.8369    0.7977   18.9740 C   0  0  0  0  0  0  0  0  0  0  0  0
    2.6626    1.5881   19.1072 C   0  0  0  0  0  0  0  0  0  0  0  0
    2.3410    2.1750   20.3022 C   0  0  0  0  0  0  0  0  0  0  0  0
    3.2010    2.0307   21.4131 C   0  0  0  0  0  0  0  0  0  0  0  0
    4.3571    1.2952   21.3027 C   0  0  0  0  0  0  0  0  0  0  0  0
    4.7188    0.6742   20.0712 C   0  0  0  0  0  0  0  0  0  0  0  0
    7.6746    0.9807   21.1370 C   0  0  0  0  0  0  0  0  0  0  0  0
    7.6453    2.0019   20.4761 O   0  0  0  0  0  0  0  0  0  0  0  0
    8.4942    0.7162   22.4201 C   0  0  1  0  0  0  0  0  0  0  0  0
    7.8147    1.4599   23.6099 C   0  0  0  0  0  0  0  0  0  0  0  0
    7.9315    2.9047   23.5041 N   0  0  0  0  0  0  0  0  0  0  0  0
    6.7986    3.7735   23.7911 C   0  0  0  0  0  0  0  0  0  0  0  0
    6.2290    4.3704   22.5042 C   0  0  0  0  0  0  0  0  0  0  0  0
    5.0554    5.2347   22.7553 N   0  0  2  0  0  0  0  0  0  0  0  0
    4.4066    5.7675   21.5112 C   0  0  0  0  0  0  0  0  0  0  0  0
    3.5606    6.9469   21.9862 C   0  0  0  0  0  0  0  0  0  0  0  0
    4.2582    7.4877   23.2446 C   0  0  0  0  0  0  0  0  0  0  0  0
    4.7173    8.9573   23.2584 C   0  0  0  0  0  0  0  0  0  0  0  0
    3.8317    9.2911   24.3339 O   0  0  0  0  0  0  0  0  0  0  0  0
    3.3440    7.9464   24.3974 C   0  0  0  0  0  0  0  0  0  0  0  0
    5.3385    6.4595   23.5873 C   0  0  0  0  0  0  0  0  0  0  0  0
    9.0873    3.5063   23.0947 C   0  0  0  0  0  0  0  0  0  0  0  0
    9.2626    4.7199   23.1764 O   0  0  0  0  0  0  0  0  0  0  0  0
   10.1500    2.6014   22.5377 C   0  0  0  0  0  0  0  0  0  0  0  0
   11.4100    3.1628   22.3272 C   0  0  0  0  0  0  0  0  0  0  0  0
   12.4903    2.3472   22.0615 C   0  0  0  0  0  0  0  0  0  0  0  0
   12.2938    0.9785   21.9569 C   0  0  0  0  0  0  0  0  0  0  0  0
   13.6776   -0.0372   21.6727 Cl  0  0  0  0  0  0  0  0  0  0  0  0
   11.0337    0.4156   22.0419 C   0  0  0  0  0  0  0  0  0  0  0  0
    9.9206    1.2345   22.3265 C   0  0  0  0  0  0  0  0  0  0  0  0
    7.6168   -1.0853   24.5603 H   0  0  0  0  0  0  0  0  0  0  0  0
    9.3825   -1.0564   24.4527 H   0  0  0  0  0  0  0  0  0  0  0  0
    8.4888   -2.4921   23.9167 H   0  0  0  0  0  0  0  0  0  0  0  0
    9.2264   -1.2078   21.9519 H   0  0  0  0  0  0  0  0  0  0  0  0
    6.2669   -1.4049   22.4163 H   0  0  0  0  0  0  0  0  0  0  0  0
    7.3019   -2.1722   21.2060 H   0  0  0  0  0  0  0  0  0  0  0  0
    6.9088   -1.4313   18.5344 H   0  0  0  0  0  0  0  0  0  0  0  0
    3.4845    0.2079   16.9116 H   0  0  0  0  0  0  0  0  0  0  0  0
    2.0319    1.7307   18.2365 H   0  0  0  0  0  0  0  0  0  0  0  0
    1.4225    2.7505   20.3998 H   0  0  0  0  0  0  0  0  0  0  0  0
    2.9524    2.5160   22.3549 H   0  0  0  0  0  0  0  0  0  0  0  0
    5.0121    1.1912   22.1612 H   0  0  0  0  0  0  0  0  0  0  0  0
    6.7552    1.1881   23.6538 H   0  0  0  0  0  0  0  0  0  0  0  0
    8.2721    1.1118   24.5444 H   0  0  0  0  0  0  0  0  0  0  0  0
    6.0167    3.1925   24.2975 H   0  0  0  0  0  0  0  0  0  0  0  0
    7.1469    4.5601   24.4703 H   0  0  0  0  0  0  0  0  0  0  0  0
    5.9446    3.5680   21.8157 H   0  0  0  0  0  0  0  0  0  0  0  0
    7.0111    4.9575   22.0099 H   0  0  0  0  0  0  0  0  0  0  0  0
    4.3395    4.6600   23.2472 H   0  0  0  0  0  0  0  0  0  0  0  0
    5.1976    6.0906   20.8285 H   0  0  0  0  0  0  0  0  0  0  0  0
    3.8285    4.9803   21.0235 H   0  0  0  0  0  0  0  0  0  0  0  0
    2.5521    6.5969   22.2390 H   0  0  0  0  0  0  0  0  0  0  0  0
    3.4576    7.7064   21.2041 H   0  0  0  0  0  0  0  0  0  0  0  0
    5.7680    9.1202   23.5343 H   0  0  0  0  0  0  0  0  0  0  0  0
    4.4939    9.5290   22.3486 H   0  0  0  0  0  0  0  0  0  0  0  0
    3.5462    7.4827   25.3718 H   0  0  0  0  0  0  0  0  0  0  0  0
    2.2681    7.8911   24.1888 H   0  0  0  0  0  0  0  0  0  0  0  0
    5.3530    6.1930   24.6476 H   0  0  0  0  0  0  0  0  0  0  0  0
    6.3363    6.8199   23.3112 H   0  0  0  0  0  0  0  0  0  0  0  0
   11.5413    4.2364   22.4031 H   0  0  0  0  0  0  0  0  0  0  0  0
   13.4894    2.7557   21.9649 H   0  0  0  0  0  0  0  0  0  0  0  0
   10.9876   -0.6534   21.8650 H   0  0  0  0  0  0  0  0  0  0  0  0
  1  2  1  0
  2  3  1  0
  3  4  1  0
  4  5  1  0
  5  6  2  0
  6  7  1  0
  7  8  2  0
  8  9  1  0
  9 10  2  0
 10 11  1  0
 11 12  2  0
 12 13  1  0
 13 14  2  0
  4 15  1  0
 15 16  2  0
 15 17  1  0
 17 18  1  1
 18 19  1  0
 19 20  1  0
 20 21  1  0
 21 22  1  0
 22 23  1  0
 23 24  1  0
 24 25  1  0
 25 26  1  0
 26 27  1  0
 27 28  1  0
 25 29  1  0
 19 30  1  0
 30 31  2  0
 30 32  1  0
 32 33  2  0
 33 34  1  0
 34 35  2  0
 35 36  1  0
 35 37  1  0
 37 38  2  0
 17  2  1  0
 29 22  1  0
 38 32  1  0
 14  5  1  0
 38 17  1  0
 14  9  1  0
 28 25  1  0
  1 39  1  0
  1 40  1  0
  1 41  1  0
  2 42  1  6
  3 43  1  0
  3 44  1  0
  6 45  1  0
  8 46  1  0
 10 47  1  0
 11 48  1  0
 12 49  1  0
 13 50  1  0
 18 51  1  0
 18 52  1  0
 20 53  1  0
 20 54  1  0
 21 55  1  0
 21 56  1  0
 22 57  1  1
 23 58  1  0
 23 59  1  0
 24 60  1  0
 24 61  1  0
 26 62  1  0
 26 63  1  0
 28 64  1  0
 28 65  1  0
 29 66  1  0
 29 67  1  0
 33 68  1  0
 34 69  1  0
 37 70  1  0
M  CHG  1  22   1
M  END
$$$$
