
     RDKit          3D

 55 60  0  0  0  0  0  0  0  0999 V2000
    8.9245   -2.7503   23.6878 C   0  0  0  0  0  0  0  0  0  0  0  0
    8.9771   -1.7743   22.5170 C   0  0  1  0  0  0  0  0  0  0  0  0
    7.6397   -1.5649   21.7888 C   0  0  0  0  0  0  0  0  0  0  0  0
    7.8673   -0.3126   21.1024 N   0  0  0  0  0  0  0  0  0  0  0  0
    6.9880    0.1593   20.0928 C   0  0  0  0  0  0  0  0  0  0  0  0
    7.1996   -0.2032   18.7851 C   0  0  0  0  0  0  0  0  0  0  0  0
    6.4010    0.1526   17.7490 N   0  0  0  0  0  0  0  0  0  0  0  0
    5.3629    0.9085   18.0058 C   0  0  0  0  0  0  0  0  0  0  0  0
    5.0404    1.3792   19.3112 C   0  0  0  0  0  0  0  0  0  0  0  0
    3.9354    2.2388   19.5413 C   0  0  0  0  0  0  0  0  0  0  0  0
    3.6125    2.6517   20.8010 C   0  0  0  0  0  0  0  0  0  0  0  0
    4.3882    2.2153   21.8963 C   0  0  0  0  0  0  0  0  0  0  0  0
    5.4937    1.4184   21.7023 C   0  0  0  0  0  0  0  0  0  0  0  0
    5.8514    0.9767   20.3989 C   0  0  0  0  0  0  0  0  0  0  0  0
    8.8521    0.4596   21.6930 C   0  0  0  0  0  0  0  0  0  0  0  0
    9.1556    1.5753   21.3434 O   0  0  0  0  0  0  0  0  0  0  0  0
    9.4838   -0.3457   22.8571 C   0  0  1  0  0  0  0  0  0  0  0  0
    8.9350    0.1886   24.2078 C   0  0  0  0  0  0  0  0  0  0  0  0
    9.3820    1.5503   24.4813 N   0  0  0  0  0  0  0  0  0  0  0  0
    8.5429    2.4707   25.2171 C   0  0  0  0  0  0  0  0  0  0  0  0
    8.0277    3.6067   24.3838 C   0  0  0  0  0  0  0  0  0  0  0  0
    7.9978    4.8909   24.8201 N   0  0  0  0  0  0  0  0  0  0  0  0
    7.4142    5.5320   23.8288 C   0  0  0  0  0  0  0  0  0  0  0  0
    7.0982    4.6563   22.8590 N   0  0  0  0  0  0  0  0  0  0  0  0
    7.4779    3.4099   23.1947 N   0  0  0  0  0  0  0  0  0  0  0  0
   10.6093    2.0186   24.1104 C   0  0  0  0  0  0  0  0  0  0  0  0
   10.9556    3.1817   24.2821 O   0  0  0  0  0  0  0  0  0  0  0  0
   11.5126    1.0096   23.4837 C   0  0  0  0  0  0  0  0  0  0  0  0
   12.8716    1.3137   23.4227 C   0  0  0  0  0  0  0  0  0  0  0  0
   13.7600    0.4152   22.8614 C   0  0  0  0  0  0  0  0  0  0  0  0
   13.2518   -0.7825   22.3686 C   0  0  0  0  0  0  0  0  0  0  0  0
   14.0978   -1.6510   21.7824 F   0  0  0  0  0  0  0  0  0  0  0  0
   11.9104   -1.1088   22.4328 C   0  0  0  0  0  0  0  0  0  0  0  0
   10.9965   -0.1771   22.9378 C   0  0  0  0  0  0  0  0  0  0  0  0
    9.8968   -2.7999   24.1944 H   0  0  0  0  0  0  0  0  0  0  0  0
    8.1730   -2.4380   24.4245 H   0  0  0  0  0  0  0  0  0  0  0  0
    8.6569   -3.7628   23.3678 H   0  0  0  0  0  0  0  0  0  0  0  0
    9.6701   -2.1385   21.7509 H   0  0  0  0  0  0  0  0  0  0  0  0
    7.3809   -2.3576   21.0765 H   0  0  0  0  0  0  0  0  0  0  0  0
    6.7970   -1.4792   22.4934 H   0  0  0  0  0  0  0  0  0  0  0  0
    8.0875   -0.7733   18.5178 H   0  0  0  0  0  0  0  0  0  0  0  0
    4.7386    1.2099   17.1614 H   0  0  0  0  0  0  0  0  0  0  0  0
    3.3710    2.5755   18.6790 H   0  0  0  0  0  0  0  0  0  0  0  0
    2.7792    3.3330   20.9608 H   0  0  0  0  0  0  0  0  0  0  0  0
    4.1169    2.5288   22.8985 H   0  0  0  0  0  0  0  0  0  0  0  0
    6.1111    1.1448   22.5531 H   0  0  0  0  0  0  0  0  0  0  0  0
    7.8375    0.1768   24.1874 H   0  0  0  0  0  0  0  0  0  0  0  0
    9.2756   -0.4929   24.9999 H   0  0  0  0  0  0  0  0  0  0  0  0
    7.6963    1.8933   25.6026 H   0  0  0  0  0  0  0  0  0  0  0  0
    9.1039    2.8911   26.0561 H   0  0  0  0  0  0  0  0  0  0  0  0
    7.2187    6.5987   23.7762 H   0  0  0  0  0  0  0  0  0  0  0  0
    6.6532    4.8367   21.9773 H   0  0  0  0  0  0  0  0  0  0  0  0
   13.1887    2.2840   23.7955 H   0  0  0  0  0  0  0  0  0  0  0  0
   14.8184    0.6235   22.7421 H   0  0  0  0  0  0  0  0  0  0  0  0
   11.6067   -2.0743   22.0452 H   0  0  0  0  0  0  0  0  0  0  0  0
  1  2  1  0
  2  3  1  0
  3  4  1  0
  4  5  1  0
  5  6  2  0
  6  7  1  0
  7  8  2  0
  8  9  1  0
  9 10  2  0
 10 11  1  0
 11 12  2  0
 12 13  1  0
 13 14  2  0
  4 15  1  0
 15 16  2  0
 15 17  1  0
 17 18  1  1
 18 19  1  0
 19 20  1  0
 20 21  1  0
 21 22  1  0
 22 23  2  0
 23 24  1  0
 24 25  1  0
 19 26  1  0
 26 27  2  0
 26 28  1  0
 28 29  2  0
 29 30  1  0
 30 31  2  0
 31 32  1  0
 31 33  1  0
 33 34  2  0
 17  2  1  0
 25 21  2  0
 34 28  1  0
 14  5  1  0
 34 17  1  0
 14  9  1  0
  1 35  1  0
  1 36  1  0
  1 37  1  0
  2 38  1  6
  3 39  1  0
  3 40  1  0
  6 41  1  0
  8 42  1  0
 10 43  1  0
 11 44  1  0
 12 45  1  0
 13 46  1  0
 18 47  1  0
 18 48  1  0
 20 49  1  0
 20 50  1  0
 23 51  1  0
 24 52  1  0
 29 53  1  0
 30 54  1  0
 33 55  1  0
M  END
$$$$
