
     RDKit          3D

 57 61  0  0  0  0  0  0  0  0999 V2000
    7.1747    5.2257   27.1381 C   0  0  0  0  0  0  0  0  0  0  0  0
    7.3311    4.9993   25.7189 N   0  0  0  0  0  0  0  0  0  0  0  0
    6.6630    3.9565   25.1702 C   0  0  0  0  0  0  0  0  0  0  0  0
    5.9735    3.1928   25.8309 O   0  0  0  0  0  0  0  0  0  0  0  0
    6.8381    3.8074   23.6616 C   0  0  0  0  0  0  0  0  0  0  0  0
    7.9510    2.9440   23.3223 N   0  0  0  0  0  0  0  0  0  0  0  0
    7.8394    1.5116   23.5637 C   0  0  0  0  0  0  0  0  0  0  0  0
    8.4784    0.7283   22.3853 C   0  0  2  0  0  0  0  0  0  0  0  0
    7.6453    0.9773   21.1082 C   0  0  0  0  0  0  0  0  0  0  0  0
    7.5890    1.9759   20.4283 O   0  0  0  0  0  0  0  0  0  0  0  0
    6.8943   -0.1530   20.8489 N   0  0  0  0  0  0  0  0  0  0  0  0
    5.8773   -0.1241   19.8645 C   0  0  0  0  0  0  0  0  0  0  0  0
    6.0319   -0.7968   18.6792 C   0  0  0  0  0  0  0  0  0  0  0  0
    5.1994   -0.6772   17.6159 N   0  0  0  0  0  0  0  0  0  0  0  0
    4.1482    0.0967   17.7658 C   0  0  0  0  0  0  0  0  0  0  0  0
    3.8125    0.7682   18.9760 C   0  0  0  0  0  0  0  0  0  0  0  0
    2.6361    1.5542   19.1053 C   0  0  0  0  0  0  0  0  0  0  0  0
    2.3092    2.1294   20.3025 C   0  0  0  0  0  0  0  0  0  0  0  0
    3.1635    1.9813   21.4179 C   0  0  0  0  0  0  0  0  0  0  0  0
    4.3277    1.2632   21.3078 C   0  0  0  0  0  0  0  0  0  0  0  0
    4.6852    0.6389   20.0764 C   0  0  0  0  0  0  0  0  0  0  0  0
    7.1335   -1.2531   21.7545 C   0  0  0  0  0  0  0  0  0  0  0  0
    8.3730   -0.8033   22.5309 C   0  0  2  0  0  0  0  0  0  0  0  0
    8.4555   -1.3912   23.9465 C   0  0  0  0  0  0  0  0  0  0  0  0
    9.7503   -1.1285   24.5872 C   0  0  0  0  0  0  0  0  0  0  0  0
   10.7747   -0.8988   25.0755 N   0  0  0  0  0  0  0  0  0  0  0  0
    9.9074    1.2321   22.2513 C   0  0  0  0  0  0  0  0  0  0  0  0
   10.9642    0.3837   21.8764 C   0  0  0  0  0  0  0  0  0  0  0  0
   12.2502    0.8711   21.8221 C   0  0  0  0  0  0  0  0  0  0  0  0
   13.5661   -0.2265   21.5569 Cl  0  0  0  0  0  0  0  0  0  0  0  0
   12.5264    2.2235   21.9728 C   0  0  0  0  0  0  0  0  0  0  0  0
   11.4912    3.0778   22.2976 C   0  0  0  0  0  0  0  0  0  0  0  0
   10.2068    2.5784   22.5118 C   0  0  0  0  0  0  0  0  0  0  0  0
    9.1717    3.5093   23.0711 C   0  0  0  0  0  0  0  0  0  0  0  0
    9.4172    4.6908   23.3126 O   0  0  0  0  0  0  0  0  0  0  0  0
    7.9292    5.9295   27.4909 H   0  0  0  0  0  0  0  0  0  0  0  0
    7.2591    4.2750   27.6695 H   0  0  0  0  0  0  0  0  0  0  0  0
    6.1784    5.6232   27.3542 H   0  0  0  0  0  0  0  0  0  0  0  0
    8.1036    5.3953   25.2010 H   0  0  0  0  0  0  0  0  0  0  0  0
    7.0159    4.7853   23.2084 H   0  0  0  0  0  0  0  0  0  0  0  0
    5.9103    3.3973   23.2470 H   0  0  0  0  0  0  0  0  0  0  0  0
    6.7800    1.2615   23.6976 H   0  0  0  0  0  0  0  0  0  0  0  0
    8.3670    1.2449   24.4906 H   0  0  0  0  0  0  0  0  0  0  0  0
    6.8956   -1.4456   18.5369 H   0  0  0  0  0  0  0  0  0  0  0  0
    3.4815    0.1973   16.9102 H   0  0  0  0  0  0  0  0  0  0  0  0
    2.0154    1.7048   18.2289 H   0  0  0  0  0  0  0  0  0  0  0  0
    1.3948    2.7086   20.3989 H   0  0  0  0  0  0  0  0  0  0  0  0
    2.9053    2.4575   22.3594 H   0  0  0  0  0  0  0  0  0  0  0  0
    4.9896    1.1705   22.1651 H   0  0  0  0  0  0  0  0  0  0  0  0
    6.2808   -1.4307   22.4222 H   0  0  0  0  0  0  0  0  0  0  0  0
    7.3318   -2.1776   21.1985 H   0  0  0  0  0  0  0  0  0  0  0  0
    9.2111   -1.2067   21.9746 H   0  0  0  0  0  0  0  0  0  0  0  0
    8.3153   -2.4740   23.8951 H   0  0  0  0  0  0  0  0  0  0  0  0
    7.6614   -0.9792   24.5769 H   0  0  0  0  0  0  0  0  0  0  0  0
   10.8178   -0.6532   21.5895 H   0  0  0  0  0  0  0  0  0  0  0  0
   13.5565    2.5388   21.8715 H   0  0  0  0  0  0  0  0  0  0  0  0
   11.6695    4.1399   22.4113 H   0  0  0  0  0  0  0  0  0  0  0  0
  1  2  1  0
  2  3  1  0
  3  4  2  0
  3  5  1  0
  5  6  1  0
  6  7  1  0
  8  7  1  1
  8  9  1  0
  9 10  2  0
  9 11  1  0
 11 12  1  0
 12 13  2  0
 13 14  1  0
 14 15  2  0
 15 16  1  0
 16 17  2  0
 17 18  1  0
 18 19  2  0
 19 20  1  0
 20 21  2  0
 11 22  1  0
 22 23  1  0
 23 24  1  0
 24 25  1  0
 25 26  3  0
  8 27  1  0
 27 28  2  0
 28 29  1  0
 29 30  1  0
 29 31  2  0
 31 32  1  0
 32 33  2  0
 33 34  1  0
 34 35  2  0
 34  6  1  0
 23  8  1  0
 33 27  1  0
 21 12  1  0
 21 16  1  0
  1 36  1  0
  1 37  1  0
  1 38  1  0
  2 39  1  0
  5 40  1  0
  5 41  1  0
  7 42  1  0
  7 43  1  0
 13 44  1  0
 15 45  1  0
 17 46  1  0
 18 47  1  0
 19 48  1  0
 20 49  1  0
 22 50  1  0
 22 51  1  0
 23 52  1  6
 24 53  1  0
 24 54  1  0
 28 55  1  0
 31 56  1  0
 32 57  1  0
M  END
$$$$
