
     RDKit          3D

 41 47  0  0  0  0  0  0  0  0999 V2000
    9.0794    4.1775   23.8598 O   0  0  0  0  0  0  0  0  0  0  0  0
    8.9513    2.9736   23.6989 C   0  0  0  0  0  0  0  0  0  0  0  0
   10.0532    2.1216   23.1610 C   0  0  0  0  0  0  0  0  0  0  0  0
   11.3376    2.6526   23.1720 C   0  0  0  0  0  0  0  0  0  0  0  0
   12.4046    1.9136   22.6936 C   0  0  0  0  0  0  0  0  0  0  0  0
   12.1384    0.6661   22.1313 C   0  0  0  0  0  0  0  0  0  0  0  0
   13.3985   -0.3329   21.4642 Cl  0  0  0  0  0  0  0  0  0  0  0  0
   10.8555    0.1671   22.0360 C   0  0  0  0  0  0  0  0  0  0  0  0
    9.7924    0.8548   22.6290 C   0  0  0  0  0  0  0  0  0  0  0  0
    8.3848    0.2952   22.6734 C   0  0  1  0  0  0  0  0  0  0  0  0
    7.7119    0.8531   23.9665 C   0  0  0  0  0  0  0  0  0  0  0  0
    7.7939    2.3070   24.0033 N   0  0  0  0  0  0  0  0  0  0  0  0
    6.6874    3.0887   24.5142 C   0  0  0  0  0  0  0  0  0  0  0  0
    6.5664    3.0828   26.0081 C   0  0  0  0  0  0  0  0  0  0  0  0
    6.9807    3.9515   26.8696 N   0  0  0  0  0  0  0  0  0  0  0  0
    6.6086    3.4772   28.1245 N   0  0  0  0  0  0  0  0  0  0  0  0
    5.9872    2.3722   27.9091 C   0  0  0  0  0  0  0  0  0  0  0  0
    5.9154    2.0466   26.5988 O   0  0  0  0  0  0  0  0  0  0  0  0
    7.5926    0.7467   21.4266 C   0  0  0  0  0  0  0  0  0  0  0  0
    7.5999    1.8321   20.8870 O   0  0  0  0  0  0  0  0  0  0  0  0
    6.8431   -0.3196   20.9828 N   0  0  0  0  0  0  0  0  0  0  0  0
    5.8882   -0.1665   19.9615 C   0  0  0  0  0  0  0  0  0  0  0  0
    6.0825   -0.7893   18.7569 C   0  0  0  0  0  0  0  0  0  0  0  0
    5.2737   -0.6447   17.6823 N   0  0  0  0  0  0  0  0  0  0  0  0
    4.2152    0.1163   17.8346 C   0  0  0  0  0  0  0  0  0  0  0  0
    3.8694    0.7745   19.0480 C   0  0  0  0  0  0  0  0  0  0  0  0
    2.6964    1.5631   19.1583 C   0  0  0  0  0  0  0  0  0  0  0  0
    2.3531    2.1390   20.3485 C   0  0  0  0  0  0  0  0  0  0  0  0
    3.1877    1.9868   21.4777 C   0  0  0  0  0  0  0  0  0  0  0  0
    4.3452    1.2575   21.3891 C   0  0  0  0  0  0  0  0  0  0  0  0
    4.7184    0.6291   20.1638 C   0  0  0  0  0  0  0  0  0  0  0  0
    7.0042   -1.5303   21.7482 C   0  0  0  0  0  0  0  0  0  0  0  0
    8.2816   -1.2511   22.5500 C   0  0  2  0  0  0  0  0  0  0  0  0
    8.3273   -2.0698   23.8472 C   0  0  0  0  0  0  0  0  0  0  0  0
    8.3784   -3.4985   23.5901 N   0  0  0  0  0  0  0  0  0  0  0  0
    7.3097   -4.3188   23.5962 C   0  0  0  0  0  0  0  0  0  0  0  0
    7.5469   -5.6010   23.2306 N   0  0  0  0  0  0  0  0  0  0  0  0
    6.4736   -6.3680   23.2272 C   0  0  0  0  0  0  0  0  0  0  0  0
    5.2270   -6.0103   23.5534 N   0  0  0  0  0  0  0  0  0  0  0  0
    5.1220   -4.7343   23.9146 C   0  0  0  0  0  0  0  0  0  0  0  0
    6.1002   -3.8365   23.9549 N   0  0  0  0  0  0  0  0  0  0  0  0
  1  2  2  0
  2  3  1  0
  3  4  2  0
  4  5  1  0
  5  6  2  0
  6  7  1  0
  6  8  1  0
  8  9  2  0
  9 10  1  0
 10 11  1  1
 11 12  1  0
 12 13  1  0
 13 14  1  0
 14 15  2  0
 15 16  1  0
 16 17  2  0
 17 18  1  0
 10 19  1  0
 19 20  2  0
 19 21  1  0
 21 22  1  0
 22 23  2  0
 23 24  1  0
 24 25  2  0
 25 26  1  0
 26 27  2  0
 27 28  1  0
 28 29  2  0
 29 30  1  0
 30 31  2  0
 21 32  1  0
 32 33  1  0
 33 34  1  1
 34 35  1  0
 35 36  1  0
 36 37  2  0
 37 38  1  0
 38 39  2  0
 39 40  1  0
 40 41  2  0
 12  2  1  0
 18 14  1  0
 31 22  1  0
 41 36  1  0
  9  3  1  0
 33 10  1  0
 31 26  1  0
M  END
>  <cnnaffinities>  (1) 
[6.69447, 6.72855, 6.73273, 6.74796, 6.95049, 6.74132, 6.73952, 6.66525]

>  <score>  (1) 
6.69447

>  <index>  (1) 
0

>  <Smiles>  (1) 
O=C1c2c(c(c(Cl)c(c2[C@@]2(C(N1C(c1nnc(o1)[H])([H])[H])([H])[H])C(=O)N(c1c(nc(c3c(c(c(c(c13)[H])[H])[H])[H])[H])[H])C([C@@]2(C(N(c1nc(nc(n1)[H])[H])[H])([H])[H])[H])([H])[H])[H])[H])[H]

>  <h>  (1) 
<NA>

>  <Training>  (1) 
True

>  <Success>  (1) 
True

>  <enamine_searched>  (1) 
False

>  <enamine_id>  (1) 
nan

$$$$

     RDKit          3D

 30 33  0  0  0  0  0  0  0  0999 V2000
    7.6306    8.0559   21.8853 C   0  0  0  0  0  0  0  0  0  0  0  0
    8.5214    7.1929   22.5578 O   0  0  0  0  0  0  0  0  0  0  0  0
    8.3171    5.8564   22.4596 C   0  0  0  0  0  0  0  0  0  0  0  0
    7.3030    5.2625   21.7179 C   0  0  0  0  0  0  0  0  0  0  0  0
    7.1917    3.8760   21.6868 C   0  0  0  0  0  0  0  0  0  0  0  0
    8.0587    3.0534   22.4047 C   0  0  0  0  0  0  0  0  0  0  0  0
    7.8589    1.6341   22.4111 N   0  0  0  0  0  0  0  0  0  0  0  0
    7.8835    0.8785   23.6609 C   0  0  0  0  0  0  0  0  0  0  0  0
    8.8346   -0.3116   23.6424 C   0  0  0  0  0  0  0  0  0  0  0  0
   10.1818   -0.1382   23.3266 C   0  0  0  0  0  0  0  0  0  0  0  0
   11.0528   -1.2234   23.3015 C   0  0  0  0  0  0  0  0  0  0  0  0
   10.5936   -2.5076   23.5801 C   0  0  0  0  0  0  0  0  0  0  0  0
    9.2532   -2.6765   23.8961 C   0  0  0  0  0  0  0  0  0  0  0  0
    8.6598   -4.2792   24.2487 Cl  0  0  0  0  0  0  0  0  0  0  0  0
    8.3742   -1.5977   23.9368 C   0  0  0  0  0  0  0  0  0  0  0  0
    7.7005    0.9874   21.1940 C   0  0  0  0  0  0  0  0  0  0  0  0
    8.2138    1.4080   20.1812 O   0  0  0  0  0  0  0  0  0  0  0  0
    6.8731   -0.3040   21.1069 C   0  0  0  0  0  0  0  0  0  0  0  0
    5.8585   -0.1903   19.9908 C   0  0  0  0  0  0  0  0  0  0  0  0
    6.0472   -0.7963   18.7768 C   0  0  0  0  0  0  0  0  0  0  0  0
    5.2417   -0.6552   17.6887 N   0  0  0  0  0  0  0  0  0  0  0  0
    4.1796    0.0969   17.8315 C   0  0  0  0  0  0  0  0  0  0  0  0
    3.8252    0.7527   19.0408 C   0  0  0  0  0  0  0  0  0  0  0  0
    2.6488    1.5356   19.1655 C   0  0  0  0  0  0  0  0  0  0  0  0
    2.3423    2.1588   20.3388 C   0  0  0  0  0  0  0  0  0  0  0  0
    3.2191    2.0550   21.4411 C   0  0  0  0  0  0  0  0  0  0  0  0
    4.3708    1.3181   21.3440 C   0  0  0  0  0  0  0  0  0  0  0  0
    4.6992    0.6271   20.1465 C   0  0  0  0  0  0  0  0  0  0  0  0
    9.0728    3.6700   23.1513 C   0  0  0  0  0  0  0  0  0  0  0  0
    9.2129    5.0482   23.1681 C   0  0  0  0  0  0  0  0  0  0  0  0
  1  2  1  0
  2  3  1  0
  3  4  2  0
  4  5  1  0
  5  6  2  0
  6  7  1  0
  7  8  1  0
  8  9  1  0
  9 10  2  0
 10 11  1  0
 11 12  2  0
 12 13  1  0
 13 14  1  0
 13 15  2  0
  7 16  1  0
 16 17  2  0
 16 18  1  0
 18 19  1  0
 19 20  2  0
 20 21  1  0
 21 22  2  0
 22 23  1  0
 23 24  2  0
 24 25  1  0
 25 26  2  0
 26 27  1  0
 27 28  2  0
  6 29  1  0
 29 30  2  0
 30  3  1  0
 15  9  1  0
 28 19  1  0
 28 23  1  0
M  END
>  <cnnaffinities>  (2) 
[6.06315, 6.06278, 5.79605, 6.24951, 6.24978, 6.10983, 5.83789, 5.7652, 5.76589, 5.95762, 5.9321, 6.34088, 6.21406, 5.96038, 5.96273]

>  <score>  (2) 
6.06315

>  <index>  (2) 
1

>  <Smiles>  (2) 
C(Oc1c(c(c(N(C(c2c(c(c(c(Cl)c2[H])[H])[H])[H])([H])[H])C(=O)C(c2c(nc(c3c(c(c(c(c23)[H])[H])[H])[H])[H])[H])([H])[H])c(c1[H])[H])[H])[H])([H])([H])[H]

>  <h>  (2) 
<NA>

>  <Training>  (2) 
True

>  <Success>  (2) 
True

>  <enamine_searched>  (2) 
False

>  <enamine_id>  (2) 
nan

$$$$

     RDKit          3D

 40 45  0  0  0  0  0  0  0  0999 V2000
   -7.3715    3.4620  -21.8563 C   0  0  0  0  0  0  0  0  0  0  0  0
   -8.3365    3.0168  -22.8499 N   0  0  0  0  0  0  0  0  0  0  0  0
   -7.8601    2.2318  -23.8622 C   0  0  0  0  0  0  0  0  0  0  0  0
   -6.6746    1.9695  -23.9986 O   0  0  0  0  0  0  0  0  0  0  0  0
   -8.9041    1.6750  -24.8289 C   0  0  0  0  0  0  0  0  0  0  0  0
   -9.5694    0.5329  -24.2435 N   0  0  0  0  0  0  0  0  0  0  0  0
   -8.8321   -0.7118  -24.1297 C   0  0  0  0  0  0  0  0  0  0  0  0
   -9.1750   -1.4644  -22.8218 C   0  0  2  0  0  0  0  0  0  0  0  0
   -8.5774   -0.7029  -21.6147 C   0  0  0  0  0  0  0  0  0  0  0  0
   -9.0035    0.3152  -21.1140 O   0  0  0  0  0  0  0  0  0  0  0  0
   -7.4458   -1.3685  -21.1969 N   0  0  0  0  0  0  0  0  0  0  0  0
   -6.6230   -0.8203  -20.1780 C   0  0  0  0  0  0  0  0  0  0  0  0
   -6.9383   -1.0478  -18.8629 C   0  0  0  0  0  0  0  0  0  0  0  0
   -6.2423   -0.5618  -17.8051 N   0  0  0  0  0  0  0  0  0  0  0  0
   -5.2001    0.1902  -18.0771 C   0  0  0  0  0  0  0  0  0  0  0  0
   -4.7654    0.5190  -19.3934 C   0  0  0  0  0  0  0  0  0  0  0  0
   -3.6405    1.3548  -19.6314 C   0  0  0  0  0  0  0  0  0  0  0  0
   -3.2570    1.6594  -20.9078 C   0  0  0  0  0  0  0  0  0  0  0  0
   -3.9776    1.1484  -22.0111 C   0  0  0  0  0  0  0  0  0  0  0  0
   -5.0713    0.3388  -21.8097 C   0  0  0  0  0  0  0  0  0  0  0  0
   -5.4928   -0.0019  -20.4937 C   0  0  0  0  0  0  0  0  0  0  0  0
   -7.1463   -2.5627  -21.9640 C   0  0  0  0  0  0  0  0  0  0  0  0
   -8.4485   -2.8376  -22.7360 C   0  0  2  0  0  0  0  0  0  0  0  0
   -8.1913   -3.6007  -24.0384 C   0  0  0  0  0  0  0  0  0  0  0  0
   -9.4191   -3.9302  -24.7268 N   0  0  0  0  0  0  0  0  0  0  0  0
   -9.4254   -4.5736  -25.9244 C   0  0  0  0  0  0  0  0  0  0  0  0
  -10.6293   -4.9178  -26.5637 C   0  0  0  0  0  0  0  0  0  0  0  0
  -10.5299   -5.5292  -27.7890 C   0  0  0  0  0  0  0  0  0  0  0  0
   -9.3625   -5.8108  -28.3944 N   0  0  0  0  0  0  0  0  0  0  0  0
   -8.2951   -5.4627  -27.6897 C   0  0  0  0  0  0  0  0  0  0  0  0
   -8.2472   -4.8600  -26.4986 N   0  0  0  0  0  0  0  0  0  0  0  0
  -10.6848   -1.5283  -22.6984 C   0  0  0  0  0  0  0  0  0  0  0  0
  -11.2974   -2.4772  -21.8741 C   0  0  0  0  0  0  0  0  0  0  0  0
  -12.6696   -2.4659  -21.7099 C   0  0  0  0  0  0  0  0  0  0  0  0
  -13.3931   -3.6098  -20.6231 Cl  0  0  0  0  0  0  0  0  0  0  0  0
  -13.4846   -1.5278  -22.3419 C   0  0  0  0  0  0  0  0  0  0  0  0
  -12.8841   -0.5722  -23.1336 C   0  0  0  0  0  0  0  0  0  0  0  0
  -11.5014   -0.5548  -23.2895 C   0  0  0  0  0  0  0  0  0  0  0  0
  -10.9097    0.6052  -24.0147 C   0  0  0  0  0  0  0  0  0  0  0  0
  -11.5850    1.5716  -24.3521 O   0  0  0  0  0  0  0  0  0  0  0  0
  1  2  1  0
  2  3  1  0
  3  4  2  0
  3  5  1  0
  5  6  1  0
  6  7  1  0
  8  7  1  6
  8  9  1  0
  9 10  2  0
  9 11  1  0
 11 12  1  0
 12 13  2  0
 13 14  1  0
 14 15  2  0
 15 16  1  0
 16 17  2  0
 17 18  1  0
 18 19  2  0
 19 20  1  0
 20 21  2  0
 11 22  1  0
 22 23  1  0
 23 24  1  6
 24 25  1  0
 25 26  1  0
 26 27  2  0
 27 28  1  0
 28 29  2  0
 29 30  1  0
 30 31  2  0
  8 32  1  0
 32 33  2  0
 33 34  1  0
 34 35  1  0
 34 36  2  0
 36 37  1  0
 37 38  2  0
 38 39  1  0
 39 40  2  0
 39  6  1  0
 23  8  1  0
 31 26  1  0
 38 32  1  0
 21 12  1  0
 21 16  1  0
M  END
>  <cnnaffinities>  (3) 
[6.62184, 7.01194]

>  <score>  (3) 
6.62184

>  <index>  (3) 
0

>  <Smiles>  (3) 
C(N(C(=O)C(N1C([C@@]2(C(=O)N(c3c(nc(c4c(c(c(c(c34)[H])[H])[H])[H])[H])[H])C([C@@]2(C(N(c2c(c(nc(n2)[H])[H])[H])[H])([H])[H])[H])([H])[H])c2c(c(Cl)c(c(c2C1=O)[H])[H])[H])([H])[H])([H])[H])[H])([H])([H])[H]

>  <h>  (3) 
<NA>

>  <Training>  (3) 
True

>  <Success>  (3) 
True

>  <enamine_searched>  (3) 
False

>  <enamine_id>  (3) 
nan

$$$$

     RDKit          3D

 33 37  0  0  0  0  0  0  0  0999 V2000
   13.5870    0.7468   23.4785 C   0  0  0  0  0  0  0  0  0  0  0  0
   12.5995   -0.2244   23.0339 N   0  0  0  0  0  0  0  0  0  0  0  0
   12.9884   -1.5372   22.9806 C   0  0  0  0  0  0  0  0  0  0  0  0
   14.1493   -1.8779   23.1088 O   0  0  0  0  0  0  0  0  0  0  0  0
   11.8990   -2.5686   22.7020 C   0  0  0  0  0  0  0  0  0  0  0  0
   10.5368   -2.2699   23.1203 N   0  0  0  0  0  0  0  0  0  0  0  0
    9.3899   -2.5791   22.2619 C   0  0  0  0  0  0  0  0  0  0  0  0
    8.3314   -1.4830   22.4484 C   0  0  2  0  0  0  0  0  0  0  0  0
    7.1031   -1.6960   21.5402 C   0  0  0  0  0  0  0  0  0  0  0  0
    6.5806   -2.7514   21.2519 O   0  0  0  0  0  0  0  0  0  0  0  0
    6.6811   -0.4535   21.0946 N   0  0  0  0  0  0  0  0  0  0  0  0
    5.7828   -0.2864   20.0097 C   0  0  0  0  0  0  0  0  0  0  0  0
    6.0572   -0.8107   18.7700 C   0  0  0  0  0  0  0  0  0  0  0  0
    5.3195   -0.5577   17.6608 N   0  0  0  0  0  0  0  0  0  0  0  0
    4.2659    0.2151   17.7889 C   0  0  0  0  0  0  0  0  0  0  0  0
    3.8667    0.8235   19.0147 C   0  0  0  0  0  0  0  0  0  0  0  0
    2.7222    1.6630   19.1163 C   0  0  0  0  0  0  0  0  0  0  0  0
    2.3797    2.2308   20.3141 C   0  0  0  0  0  0  0  0  0  0  0  0
    3.1754    2.0094   21.4599 C   0  0  0  0  0  0  0  0  0  0  0  0
    4.2956    1.2166   21.3820 C   0  0  0  0  0  0  0  0  0  0  0  0
    4.6570    0.5859   20.1600 C   0  0  0  0  0  0  0  0  0  0  0  0
    7.6254    0.6172   21.4060 C   0  0  0  0  0  0  0  0  0  0  0  0
    8.8557   -0.0817   22.0053 C   0  0  2  0  0  0  0  0  0  0  0  0
   10.0156   -0.1665   21.0558 N   0  0  0  0  0  0  0  0  0  0  0  0
    7.9767   -1.4373   23.9363 C   0  0  0  0  0  0  0  0  0  0  0  0
    6.7821   -0.8673   24.3912 C   0  0  0  0  0  0  0  0  0  0  0  0
    6.5567   -0.7334   25.7525 C   0  0  0  0  0  0  0  0  0  0  0  0
    5.1118    0.0465   26.3202 Cl  0  0  0  0  0  0  0  0  0  0  0  0
    7.4698   -1.1994   26.6946 C   0  0  0  0  0  0  0  0  0  0  0  0
    8.6586   -1.7467   26.2511 C   0  0  0  0  0  0  0  0  0  0  0  0
    8.9348   -1.8215   24.8861 C   0  0  0  0  0  0  0  0  0  0  0  0
   10.3066   -2.2646   24.4786 C   0  0  0  0  0  0  0  0  0  0  0  0
   11.1839   -2.5240   25.2899 O   0  0  0  0  0  0  0  0  0  0  0  0
  1  2  1  0
  2  3  1  0
  3  4  2  0
  3  5  1  0
  5  6  1  0
  6  7  1  0
  8  7  1  1
  8  9  1  0
  9 10  2  0
  9 11  1  0
 11 12  1  0
 12 13  2  0
 13 14  1  0
 14 15  2  0
 15 16  1  0
 16 17  2  0
 17 18  1  0
 18 19  2  0
 19 20  1  0
 20 21  2  0
 11 22  1  0
 22 23  1  0
 23 24  1  6
  8 25  1  0
 25 26  2  0
 26 27  1  0
 27 28  1  0
 27 29  2  0
 29 30  1  0
 30 31  2  0
 31 32  1  0
 32 33  2  0
 32  6  1  0
 23  8  1  0
 31 25  1  0
 21 12  1  0
 21 16  1  0
M  CHG  1  24   1
M  END
>  <cnnaffinities>  (4) 
[6.34866, 6.09243, 6.35237]

>  <score>  (4) 
6.34866

>  <index>  (4) 
2

>  <Smiles>  (4) 
C(N(C(=O)C(N1C([C@@]2(C(=O)N(c3c(nc(c4c(c(c(c(c34)[H])[H])[H])[H])[H])[H])C([C@@]2([N+]([H])([H])[H])[H])([H])[H])c2c(c(Cl)c(c(c2C1=O)[H])[H])[H])([H])[H])([H])[H])[H])([H])([H])[H]

>  <h>  (4) 
<NA>

>  <Training>  (4) 
True

>  <Success>  (4) 
True

>  <enamine_searched>  (4) 
False

>  <enamine_id>  (4) 
nan

$$$$

     RDKit          3D

 42 48  0  0  0  0  0  0  0  0999 V2000
   10.7017    3.7062   23.2738 O   0  0  0  0  0  0  0  0  0  0  0  0
   10.1162    2.6384   23.1573 C   0  0  0  0  0  0  0  0  0  0  0  0
   10.8007    1.4036   22.6547 C   0  0  0  0  0  0  0  0  0  0  0  0
   12.1786    1.4666   22.4495 C   0  0  0  0  0  0  0  0  0  0  0  0
   12.8527    0.4113   21.8695 C   0  0  0  0  0  0  0  0  0  0  0  0
   12.1154   -0.7005   21.4647 C   0  0  0  0  0  0  0  0  0  0  0  0
   12.9228   -2.0081   20.6504 Cl  0  0  0  0  0  0  0  0  0  0  0  0
   10.7484   -0.7748   21.6502 C   0  0  0  0  0  0  0  0  0  0  0  0
   10.0711    0.2582   22.3078 C   0  0  0  0  0  0  0  0  0  0  0  0
    8.5695    0.1791   22.5205 C   0  0  1  0  0  0  0  0  0  0  0  0
    8.1997    1.1857   23.6486 C   0  0  0  0  0  0  0  0  0  0  0  0
    8.7781    2.4966   23.4138 N   0  0  0  0  0  0  0  0  0  0  0  0
    7.9448    3.6908   23.4631 C   0  0  0  0  0  0  0  0  0  0  0  0
    7.6582    4.2345   24.8575 C   0  0  0  0  0  0  0  0  0  0  0  0
    8.2081    5.4168   25.2978 C   0  0  0  0  0  0  0  0  0  0  0  0
    7.9037    5.8518   26.5855 C   0  0  0  0  0  0  0  0  0  0  0  0
    7.1099    5.1816   27.4145 N   0  0  0  0  0  0  0  0  0  0  0  0
    6.5565    4.0487   27.0005 N   0  0  0  0  0  0  0  0  0  0  0  0
    6.8142    3.5925   25.7769 C   0  0  0  0  0  0  0  0  0  0  0  0
    7.8368    0.5507   21.2111 C   0  0  0  0  0  0  0  0  0  0  0  0
    8.0692    1.4822   20.4729 O   0  0  0  0  0  0  0  0  0  0  0  0
    6.8277   -0.3625   21.0014 N   0  0  0  0  0  0  0  0  0  0  0  0
    5.8855   -0.1692   19.9643 C   0  0  0  0  0  0  0  0  0  0  0  0
    6.0961   -0.7632   18.7503 C   0  0  0  0  0  0  0  0  0  0  0  0
    5.2812   -0.6299   17.6753 N   0  0  0  0  0  0  0  0  0  0  0  0
    4.2123    0.1150   17.8277 C   0  0  0  0  0  0  0  0  0  0  0  0
    3.8680    0.7797   19.0412 C   0  0  0  0  0  0  0  0  0  0  0  0
    2.6999    1.5757   19.1565 C   0  0  0  0  0  0  0  0  0  0  0  0
    2.3868    2.1808   20.3421 C   0  0  0  0  0  0  0  0  0  0  0  0
    3.2415    2.0513   21.4587 C   0  0  0  0  0  0  0  0  0  0  0  0
    4.3898    1.3056   21.3695 C   0  0  0  0  0  0  0  0  0  0  0  0
    4.7242    0.6406   20.1542 C   0  0  0  0  0  0  0  0  0  0  0  0
    6.6829   -1.3486   22.0448 C   0  0  0  0  0  0  0  0  0  0  0  0
    8.0166   -1.2513   22.7965 C   0  0  2  0  0  0  0  0  0  0  0  0
    7.8614   -1.6644   24.2669 C   0  0  0  0  0  0  0  0  0  0  0  0
    7.4288   -3.0419   24.3881 N   0  0  0  0  0  0  0  0  0  0  0  0
    6.1447   -3.4218   24.6262 C   0  0  0  0  0  0  0  0  0  0  0  0
    5.7902   -4.7871   24.5819 C   0  0  0  0  0  0  0  0  0  0  0  0
    4.4750   -5.0969   24.8313 C   0  0  0  0  0  0  0  0  0  0  0  0
    3.5444   -4.1747   25.1263 N   0  0  0  0  0  0  0  0  0  0  0  0
    3.9857   -2.9262   25.1468 C   0  0  0  0  0  0  0  0  0  0  0  0
    5.2237   -2.4853   24.9042 N   0  0  0  0  0  0  0  0  0  0  0  0
  1  2  2  0
  2  3  1  0
  3  4  2  0
  4  5  1  0
  5  6  2  0
  6  7  1  0
  6  8  1  0
  8  9  2  0
  9 10  1  0
 10 11  1  1
 11 12  1  0
 12 13  1  0
 13 14  1  0
 14 15  2  0
 15 16  1  0
 16 17  2  0
 17 18  1  0
 18 19  2  0
 10 20  1  0
 20 21  2  0
 20 22  1  0
 22 23  1  0
 23 24  2  0
 24 25  1  0
 25 26  2  0
 26 27  1  0
 27 28  2  0
 28 29  1  0
 29 30  2  0
 30 31  1  0
 31 32  2  0
 22 33  1  0
 33 34  1  0
 34 35  1  1
 35 36  1  0
 36 37  1  0
 37 38  2  0
 38 39  1  0
 39 40  2  0
 40 41  1  0
 41 42  2  0
 12  2  1  0
 19 14  1  0
 32 23  1  0
 42 37  1  0
  9  3  1  0
 34 10  1  0
 32 27  1  0
M  END
>  <cnnaffinities>  (5) 
[6.60933, 6.81427, 6.90687, 6.60106, 6.68944]

>  <score>  (5) 
6.60933

>  <index>  (5) 
3

>  <Smiles>  (5) 
O=C1c2c(c(c(Cl)c(c2[C@@]2(C(N1C(c1c(c(nnc1[H])[H])[H])([H])[H])([H])[H])C(=O)N(c1c(nc(c3c(c(c(c(c13)[H])[H])[H])[H])[H])[H])C([C@@]2(C(N(c1c(c(nc(n1)[H])[H])[H])[H])([H])[H])[H])([H])[H])[H])[H])[H]

>  <h>  (5) 
<NA>

>  <Training>  (5) 
True

>  <Success>  (5) 
True

>  <enamine_searched>  (5) 
False

>  <enamine_id>  (5) 
nan

$$$$

     RDKit          3D

 40 45  0  0  0  0  0  0  0  0999 V2000
   -7.2541    3.4798  -21.9565 C   0  0  0  0  0  0  0  0  0  0  0  0
   -8.0627    2.9683  -23.0495 N   0  0  0  0  0  0  0  0  0  0  0  0
   -7.4636    2.2514  -24.0321 C   0  0  0  0  0  0  0  0  0  0  0  0
   -6.2479    2.1326  -24.1115 O   0  0  0  0  0  0  0  0  0  0  0  0
   -8.3993    1.6053  -25.0647 C   0  0  0  0  0  0  0  0  0  0  0  0
   -9.1877    0.5075  -24.5337 N   0  0  0  0  0  0  0  0  0  0  0  0
   -8.5441   -0.7755  -24.3163 C   0  0  0  0  0  0  0  0  0  0  0  0
   -9.0100   -1.4337  -22.9913 C   0  0  2  0  0  0  0  0  0  0  0  0
   -8.4412   -0.6409  -21.7824 C   0  0  0  0  0  0  0  0  0  0  0  0
   -8.8020    0.4421  -21.3772 O   0  0  0  0  0  0  0  0  0  0  0  0
   -7.4218   -1.3696  -21.2074 N   0  0  0  0  0  0  0  0  0  0  0  0
   -6.6112   -0.8055  -20.1791 C   0  0  0  0  0  0  0  0  0  0  0  0
   -6.9099   -1.0431  -18.8617 C   0  0  0  0  0  0  0  0  0  0  0  0
   -6.2079   -0.5523  -17.8081 N   0  0  0  0  0  0  0  0  0  0  0  0
   -5.1700    0.2072  -18.0745 C   0  0  0  0  0  0  0  0  0  0  0  0
   -4.7348    0.5319  -19.3908 C   0  0  0  0  0  0  0  0  0  0  0  0
   -3.6035    1.3605  -19.6355 C   0  0  0  0  0  0  0  0  0  0  0  0
   -3.2093    1.6436  -20.9163 C   0  0  0  0  0  0  0  0  0  0  0  0
   -3.9262    1.1086  -22.0106 C   0  0  0  0  0  0  0  0  0  0  0  0
   -5.0241    0.3081  -21.7982 C   0  0  0  0  0  0  0  0  0  0  0  0
   -5.4694    0.0059  -20.4827 C   0  0  0  0  0  0  0  0  0  0  0  0
   -7.1394   -2.6217  -21.8826 C   0  0  0  0  0  0  0  0  0  0  0  0
   -8.3717   -2.8461  -22.7838 C   0  0  2  0  0  0  0  0  0  0  0  0
   -8.0095   -3.6644  -24.0360 C   0  0  0  0  0  0  0  0  0  0  0  0
   -9.1700   -3.9778  -24.8280 N   0  0  0  0  0  0  0  0  0  0  0  0
   -9.0484   -4.6375  -26.0442 C   0  0  0  0  0  0  0  0  0  0  0  0
  -10.0933   -4.9775  -26.9517 C   0  0  0  0  0  0  0  0  0  0  0  0
   -9.6157   -5.5942  -28.0291 N   0  0  0  0  0  0  0  0  0  0  0  0
   -8.2985   -5.6762  -27.8410 N   0  0  0  0  0  0  0  0  0  0  0  0
   -7.4326   -6.2520  -28.8480 C   0  0  0  0  0  0  0  0  0  0  0  0
   -7.9061   -5.1120  -26.6645 C   0  0  0  0  0  0  0  0  0  0  0  0
  -10.5301   -1.3880  -22.9384 C   0  0  0  0  0  0  0  0  0  0  0  0
  -11.2258   -2.1845  -22.0182 C   0  0  0  0  0  0  0  0  0  0  0  0
  -12.6061   -2.1228  -21.9508 C   0  0  0  0  0  0  0  0  0  0  0  0
  -13.4570   -3.1135  -20.7988 Cl  0  0  0  0  0  0  0  0  0  0  0  0
  -13.3335   -1.2518  -22.7602 C   0  0  0  0  0  0  0  0  0  0  0  0
  -12.6475   -0.4034  -23.6080 C   0  0  0  0  0  0  0  0  0  0  0  0
  -11.2539   -0.4364  -23.6741 C   0  0  0  0  0  0  0  0  0  0  0  0
  -10.5483    0.6444  -24.4443 C   0  0  0  0  0  0  0  0  0  0  0  0
  -11.1407    1.6036  -24.9156 O   0  0  0  0  0  0  0  0  0  0  0  0
  1  2  1  0
  2  3  1  0
  3  4  2  0
  3  5  1  0
  5  6  1  0
  6  7  1  0
  8  7  1  6
  8  9  1  0
  9 10  2  0
  9 11  1  0
 11 12  1  0
 12 13  2  0
 13 14  1  0
 14 15  2  0
 15 16  1  0
 16 17  2  0
 17 18  1  0
 18 19  2  0
 19 20  1  0
 20 21  2  0
 11 22  1  0
 22 23  1  0
 23 24  1  6
 24 25  1  0
 25 26  1  0
 26 27  1  0
 27 28  2  0
 28 29  1  0
 29 30  1  0
 29 31  1  0
  8 32  1  0
 32 33  2  0
 33 34  1  0
 34 35  1  0
 34 36  2  0
 36 37  1  0
 37 38  2  0
 38 39  1  0
 39 40  2  0
 39  6  1  0
 23  8  1  0
 31 26  2  0
 38 32  1  0
 21 12  1  0
 21 16  1  0
M  END
>  <cnnaffinities>  (6) 
[7.02557, 6.70479, 7.24609, 7.03709, 7.00214]

>  <score>  (6) 
7.02557

>  <index>  (6) 
1

>  <Smiles>  (6) 
C(N(C(=O)C(N1C([C@@]2(C(=O)N(c3c(nc(c4c(c(c(c(c34)[H])[H])[H])[H])[H])[H])C([C@@]2(C(N(c2c(nn(C([H])([H])[H])c2[H])[H])[H])([H])[H])[H])([H])[H])c2c(c(Cl)c(c(c2C1=O)[H])[H])[H])([H])[H])([H])[H])[H])([H])([H])[H]

>  <h>  (6) 
<NA>

>  <Training>  (6) 
True

>  <Success>  (6) 
True

>  <enamine_searched>  (6) 
False

>  <enamine_id>  (6) 
nan

$$$$

     RDKit          3D

 36 41  0  0  0  0  0  0  0  0999 V2000
   -5.9245   -7.5576  -26.6568 C   0  0  0  0  0  0  0  0  0  0  0  0
   -6.3854   -6.1301  -26.7442 C   0  0  0  0  0  0  0  0  0  0  0  0
   -5.5558   -5.0664  -26.3911 C   0  0  0  0  0  0  0  0  0  0  0  0
   -5.9427   -3.7896  -26.4268 N   0  0  0  0  0  0  0  0  0  0  0  0
   -7.1942   -3.5574  -26.8250 C   0  0  0  0  0  0  0  0  0  0  0  0
   -7.6967   -2.1286  -26.8324 C   0  0  0  0  0  0  0  0  0  0  0  0
   -8.5664   -1.8010  -25.6907 N   0  0  0  0  0  0  0  0  0  0  0  0
   -7.9399   -1.2355  -24.4992 C   0  0  0  0  0  0  0  0  0  0  0  0
   -8.7185   -1.5329  -23.1881 C   0  0  2  0  0  0  0  0  0  0  0  0
   -8.1358   -0.6185  -22.1042 C   0  0  0  0  0  0  0  0  0  0  0  0
   -8.2528    0.5899  -22.0392 O   0  0  0  0  0  0  0  0  0  0  0  0
   -7.4184   -1.3766  -21.2063 N   0  0  0  0  0  0  0  0  0  0  0  0
   -6.6095   -0.8015  -20.1850 C   0  0  0  0  0  0  0  0  0  0  0  0
   -6.8907   -1.0537  -18.8674 C   0  0  0  0  0  0  0  0  0  0  0  0
   -6.2002   -0.5515  -17.8103 N   0  0  0  0  0  0  0  0  0  0  0  0
   -5.1669    0.2147  -18.0731 C   0  0  0  0  0  0  0  0  0  0  0  0
   -4.7297    0.5289  -19.3907 C   0  0  0  0  0  0  0  0  0  0  0  0
   -3.5949    1.3536  -19.6299 C   0  0  0  0  0  0  0  0  0  0  0  0
   -3.1879    1.6204  -20.9079 C   0  0  0  0  0  0  0  0  0  0  0  0
   -3.8884    1.0689  -22.0046 C   0  0  0  0  0  0  0  0  0  0  0  0
   -4.9844    0.2727  -21.7984 C   0  0  0  0  0  0  0  0  0  0  0  0
   -5.4549   -0.0028  -20.4858 C   0  0  0  0  0  0  0  0  0  0  0  0
   -7.3854   -2.7885  -21.5418 C   0  0  0  0  0  0  0  0  0  0  0  0
   -8.4994   -2.9624  -22.5818 C   0  0  2  0  0  0  0  0  0  0  0  0
   -8.2379   -4.1006  -23.5637 C   0  0  0  0  0  0  0  0  0  0  0  0
  -10.1923   -1.2725  -23.4181 C   0  0  0  0  0  0  0  0  0  0  0  0
  -11.0354   -0.9511  -22.3542 C   0  0  0  0  0  0  0  0  0  0  0  0
  -12.3821   -0.7912  -22.6005 C   0  0  0  0  0  0  0  0  0  0  0  0
  -13.2220   -0.4898  -21.6146 F   0  0  0  0  0  0  0  0  0  0  0  0
  -12.9506   -0.9299  -23.8515 C   0  0  0  0  0  0  0  0  0  0  0  0
  -12.1267   -1.3009  -24.8888 C   0  0  0  0  0  0  0  0  0  0  0  0
  -10.7630   -1.5337  -24.6628 C   0  0  0  0  0  0  0  0  0  0  0  0
   -9.8970   -2.1209  -25.7384 C   0  0  0  0  0  0  0  0  0  0  0  0
  -10.3758   -2.8297  -26.6132 O   0  0  0  0  0  0  0  0  0  0  0  0
   -8.0125   -4.6193  -27.2074 C   0  0  0  0  0  0  0  0  0  0  0  0
   -7.6278   -5.8941  -27.1706 N   0  0  0  0  0  0  0  0  0  0  0  0
  1  2  1  0
  2  3  2  0
  3  4  1  0
  4  5  2  0
  5  6  1  0
  6  7  1  0
  7  8  1  0
  9  8  1  6
  9 10  1  0
 10 11  2  0
 10 12  1  0
 12 13  1  0
 13 14  2  0
 14 15  1  0
 15 16  2  0
 16 17  1  0
 17 18  2  0
 18 19  1  0
 19 20  2  0
 20 21  1  0
 21 22  2  0
 12 23  1  0
 23 24  1  0
 24 25  1  6
  9 26  1  0
 26 27  2  0
 27 28  1  0
 28 29  1  0
 28 30  2  0
 30 31  1  0
 31 32  2  0
 32 33  1  0
 33 34  2  0
  5 35  1  0
 35 36  2  0
 36  2  1  0
 33  7  1  0
 24  9  1  0
 32 26  1  0
 22 13  1  0
 22 17  1  0
M  END
>  <cnnaffinities>  (7) 
[6.48946]

>  <score>  (7) 
6.48946

>  <index>  (7) 
2

>  <Smiles>  (7) 
C(c1c(nc(C(N2C([C@@]3(C(=O)N(c4c(nc(c5c(c(c(c(c45)[H])[H])[H])[H])[H])[H])C([C@@]3(C([H])([H])[H])[H])([H])[H])c3c(c(F)c(c(c3C2=O)[H])[H])[H])([H])[H])([H])[H])c(n1)[H])[H])([H])([H])[H]

>  <h>  (7) 
<NA>

>  <Training>  (7) 
True

>  <Success>  (7) 
True

>  <enamine_searched>  (7) 
False

>  <enamine_id>  (7) 
nan

$$$$

     RDKit          3D

 37 41  0  0  0  0  0  0  0  0999 V2000
   -7.4067    3.4745  -21.8342 C   0  0  0  0  0  0  0  0  0  0  0  0
   -8.3832    3.0086  -22.8039 N   0  0  0  0  0  0  0  0  0  0  0  0
   -7.9048    2.2478  -23.8314 C   0  0  0  0  0  0  0  0  0  0  0  0
   -6.7133    2.0157  -23.9792 O   0  0  0  0  0  0  0  0  0  0  0  0
   -8.9488    1.6901  -24.7973 C   0  0  0  0  0  0  0  0  0  0  0  0
   -9.5717    0.5038  -24.2479 N   0  0  0  0  0  0  0  0  0  0  0  0
   -8.7866   -0.7124  -24.1180 C   0  0  0  0  0  0  0  0  0  0  0  0
   -9.1211   -1.4964  -22.8226 C   0  0  2  0  0  0  0  0  0  0  0  0
   -8.5741   -0.7411  -21.5920 C   0  0  0  0  0  0  0  0  0  0  0  0
   -9.0456    0.2480  -21.0655 O   0  0  0  0  0  0  0  0  0  0  0  0
   -7.4246   -1.3717  -21.1771 N   0  0  0  0  0  0  0  0  0  0  0  0
   -6.6139   -0.8077  -20.1621 C   0  0  0  0  0  0  0  0  0  0  0  0
   -6.9281   -1.0402  -18.8500 C   0  0  0  0  0  0  0  0  0  0  0  0
   -6.2312   -0.5521  -17.7941 N   0  0  0  0  0  0  0  0  0  0  0  0
   -5.1897    0.1993  -18.0684 C   0  0  0  0  0  0  0  0  0  0  0  0
   -4.7536    0.5242  -19.3850 C   0  0  0  0  0  0  0  0  0  0  0  0
   -3.6283    1.3572  -19.6289 C   0  0  0  0  0  0  0  0  0  0  0  0
   -3.2474    1.6594  -20.9059 C   0  0  0  0  0  0  0  0  0  0  0  0
   -3.9723    1.1485  -22.0072 C   0  0  0  0  0  0  0  0  0  0  0  0
   -5.0664    0.3425  -21.8023 C   0  0  0  0  0  0  0  0  0  0  0  0
   -5.4830    0.0049  -20.4838 C   0  0  0  0  0  0  0  0  0  0  0  0
   -7.0666   -2.5392  -21.9575 C   0  0  0  0  0  0  0  0  0  0  0  0
   -8.3432   -2.8438  -22.7548 C   0  0  2  0  0  0  0  0  0  0  0  0
   -8.0405   -3.5469  -24.0808 C   0  0  0  0  0  0  0  0  0  0  0  0
   -9.2088   -3.8196  -24.8252 O   0  0  0  0  0  0  0  0  0  0  0  0
   -9.7996   -5.1013  -24.6027 C   0  0  0  0  0  0  0  0  0  0  0  0
  -11.2908   -4.9092  -24.8110 C   0  0  0  0  0  0  0  0  0  0  0  0
   -9.2100   -6.1420  -25.5566 C   0  0  0  0  0  0  0  0  0  0  0  0
  -10.6282   -1.6158  -22.7288 C   0  0  0  0  0  0  0  0  0  0  0  0
  -11.2208   -2.5585  -21.8819 C   0  0  0  0  0  0  0  0  0  0  0  0
  -12.5964   -2.5872  -21.7418 C   0  0  0  0  0  0  0  0  0  0  0  0
  -13.3208   -3.6424  -20.5687 Cl  0  0  0  0  0  0  0  0  0  0  0  0
  -13.4350   -1.7437  -22.4712 C   0  0  0  0  0  0  0  0  0  0  0  0
  -12.8543   -0.7870  -23.2733 C   0  0  0  0  0  0  0  0  0  0  0  0
  -11.4697   -0.6880  -23.3551 C   0  0  0  0  0  0  0  0  0  0  0  0
  -10.9158    0.5199  -24.0310 C   0  0  0  0  0  0  0  0  0  0  0  0
  -11.6229    1.4722  -24.3403 O   0  0  0  0  0  0  0  0  0  0  0  0
  1  2  1  0
  2  3  1  0
  3  4  2  0
  3  5  1  0
  5  6  1  0
  6  7  1  0
  8  7  1  6
  8  9  1  0
  9 10  2  0
  9 11  1  0
 11 12  1  0
 12 13  2  0
 13 14  1  0
 14 15  2  0
 15 16  1  0
 16 17  2  0
 17 18  1  0
 18 19  2  0
 19 20  1  0
 20 21  2  0
 11 22  1  0
 22 23  1  0
 23 24  1  6
 24 25  1  0
 25 26  1  0
 26 27  1  0
 26 28  1  0
  8 29  1  0
 29 30  2  0
 30 31  1  0
 31 32  1  0
 31 33  2  0
 33 34  1  0
 34 35  2  0
 35 36  1  0
 36 37  2  0
 36  6  1  0
 23  8  1  0
 35 29  1  0
 21 12  1  0
 21 16  1  0
M  END
>  <cnnaffinities>  (8) 
[6.62912, 6.99013, 6.41658, 6.65481, 6.67821]

>  <score>  (8) 
6.62912

>  <index>  (8) 
3

>  <Smiles>  (8) 
C(N(C(=O)C(N1C([C@@]2(C(=O)N(c3c(nc(c4c(c(c(c(c34)[H])[H])[H])[H])[H])[H])C([C@@]2(C(OC(C([H])([H])[H])(C([H])([H])[H])[H])([H])[H])[H])([H])[H])c2c(c(Cl)c(c(c2C1=O)[H])[H])[H])([H])[H])([H])[H])[H])([H])([H])[H]

>  <h>  (8) 
<NA>

>  <Training>  (8) 
True

>  <Success>  (8) 
True

>  <enamine_searched>  (8) 
False

>  <enamine_id>  (8) 
nan

$$$$

     RDKit          3D

 35 40  0  0  0  0  0  0  0  0999 V2000
   -8.3503   -4.0267  -23.7128 C   0  0  0  0  0  0  0  0  0  0  0  0
   -8.5404   -3.1248  -22.4940 C   0  0  1  0  0  0  0  0  0  0  0  0
   -7.1986   -2.5350  -22.0296 C   0  0  0  0  0  0  0  0  0  0  0  0
   -7.5864   -1.3921  -21.2327 N   0  0  0  0  0  0  0  0  0  0  0  0
   -6.7898   -0.8376  -20.1974 C   0  0  0  0  0  0  0  0  0  0  0  0
   -7.0937   -1.0853  -18.8804 C   0  0  0  0  0  0  0  0  0  0  0  0
   -6.3772   -0.6240  -17.8226 N   0  0  0  0  0  0  0  0  0  0  0  0
   -5.3232    0.1136  -18.0849 C   0  0  0  0  0  0  0  0  0  0  0  0
   -4.8834    0.4401  -19.3997 C   0  0  0  0  0  0  0  0  0  0  0  0
   -3.7414    1.2552  -19.6323 C   0  0  0  0  0  0  0  0  0  0  0  0
   -3.3365    1.5312  -20.9088 C   0  0  0  0  0  0  0  0  0  0  0  0
   -4.0471    1.0009  -22.0094 C   0  0  0  0  0  0  0  0  0  0  0  0
   -5.1629    0.2241  -21.8105 C   0  0  0  0  0  0  0  0  0  0  0  0
   -5.6196   -0.0676  -20.4976 C   0  0  0  0  0  0  0  0  0  0  0  0
   -8.8619   -0.9446  -21.5173 C   0  0  0  0  0  0  0  0  0  0  0  0
   -9.3826    0.0061  -20.9817 O   0  0  0  0  0  0  0  0  0  0  0  0
   -9.4656   -1.8747  -22.6267 C   0  0  1  0  0  0  0  0  0  0  0  0
   -9.2989   -1.1902  -24.0101 C   0  0  0  0  0  0  0  0  0  0  0  0
  -10.1161    0.0085  -24.1197 N   0  0  0  0  0  0  0  0  0  0  0  0
   -9.5748    1.1863  -24.7799 C   0  0  0  0  0  0  0  0  0  0  0  0
   -8.5371    1.8887  -23.9469 C   0  0  0  0  0  0  0  0  0  0  0  0
   -8.8576    2.5199  -22.8396 N   0  0  0  0  0  0  0  0  0  0  0  0
   -7.6870    3.0783  -22.3917 C   0  0  0  0  0  0  0  0  0  0  0  0
   -6.6539    2.7724  -23.2334 C   0  0  0  0  0  0  0  0  0  0  0  0
   -7.2047    2.0006  -24.2329 N   0  0  0  0  0  0  0  0  0  0  0  0
   -6.5392    1.5221  -25.4275 C   0  0  0  0  0  0  0  0  0  0  0  0
  -11.4404   -0.0109  -23.7847 C   0  0  0  0  0  0  0  0  0  0  0  0
  -12.2310    0.8593  -24.1304 O   0  0  0  0  0  0  0  0  0  0  0  0
  -11.8775   -1.1676  -22.9422 C   0  0  0  0  0  0  0  0  0  0  0  0
  -13.2356   -1.2229  -22.6329 C   0  0  0  0  0  0  0  0  0  0  0  0
  -13.7332   -2.1938  -21.7899 C   0  0  0  0  0  0  0  0  0  0  0  0
  -12.8254   -3.1066  -21.2702 C   0  0  0  0  0  0  0  0  0  0  0  0
  -13.2826   -4.0005  -20.3770 F   0  0  0  0  0  0  0  0  0  0  0  0
  -11.4776   -3.0954  -21.5876 C   0  0  0  0  0  0  0  0  0  0  0  0
  -10.9603   -2.0950  -22.4187 C   0  0  0  0  0  0  0  0  0  0  0  0
  2  1  1  6
  2  3  1  0
  3  4  1  0
  4  5  1  0
  5  6  2  0
  6  7  1  0
  7  8  2  0
  8  9  1  0
  9 10  2  0
 10 11  1  0
 11 12  2  0
 12 13  1  0
 13 14  2  0
  4 15  1  0
 15 16  2  0
 15 17  1  0
 17 18  1  6
 18 19  1  0
 19 20  1  0
 20 21  1  0
 21 22  2  0
 22 23  1  0
 23 24  2  0
 24 25  1  0
 25 26  1  0
 19 27  1  0
 27 28  2  0
 27 29  1  0
 29 30  2  0
 30 31  1  0
 31 32  2  0
 32 33  1  0
 32 34  1  0
 34 35  2  0
 17  2  1  0
 25 21  1  0
 35 29  1  0
 14  5  1  0
 35 17  1  0
 14  9  1  0
M  END
>  <cnnaffinities>  (9) 
[6.82469, 6.15079, 6.52194, 6.52607, 6.47387]

>  <score>  (9) 
6.82469

>  <index>  (9) 
4

>  <Smiles>  (9) 
C([C@]1(C(N(c2c(nc(c3c(c(c(c(c23)[H])[H])[H])[H])[H])[H])C(=O)[C@]21C(N(C(c1nc(c(n1C([H])([H])[H])[H])[H])([H])[H])C(=O)c1c(c(c(F)c(c21)[H])[H])[H])([H])[H])([H])[H])[H])([H])([H])[H]

>  <h>  (9) 
<NA>

>  <Training>  (9) 
True

>  <Success>  (9) 
True

>  <enamine_searched>  (9) 
False

>  <enamine_id>  (9) 
nan

$$$$

     RDKit          3D

 23 26  0  0  0  0  0  0  0  0999 V2000
    8.9721    3.2696   23.0201 C   0  0  0  0  0  0  0  0  0  0  0  0
    9.6163    2.1364   22.2242 C   0  0  1  0  0  0  0  0  0  0  0  0
   10.9780    1.8377   22.7460 C   0  0  0  0  0  0  0  0  0  0  0  0
   12.1878    2.5084   22.3872 C   0  0  0  0  0  0  0  0  0  0  0  0
   13.2740    1.9695   22.9912 C   0  0  0  0  0  0  0  0  0  0  0  0
   12.8193    0.7356   24.1114 S   0  0  0  0  0  0  0  0  0  0  0  0
   11.1532    0.8577   23.6682 C   0  0  0  0  0  0  0  0  0  0  0  0
   10.0029    0.0251   24.1711 C   0  0  0  0  0  0  0  0  0  0  0  0
    9.0233   -0.2508   23.0228 C   0  0  0  0  0  0  0  0  0  0  0  0
    8.7843    0.9224   22.1753 N   0  0  0  0  0  0  0  0  0  0  0  0
    7.8125    0.9354   21.2076 C   0  0  0  0  0  0  0  0  0  0  0  0
    7.6808    1.8925   20.4618 O   0  0  0  0  0  0  0  0  0  0  0  0
    6.9130   -0.3054   21.0777 C   0  0  0  0  0  0  0  0  0  0  0  0
    5.8845   -0.1691   19.9838 C   0  0  0  0  0  0  0  0  0  0  0  0
    6.0617   -0.7884   18.7735 C   0  0  0  0  0  0  0  0  0  0  0  0
    5.2526   -0.6500   17.6911 N   0  0  0  0  0  0  0  0  0  0  0  0
    4.1903    0.1024   17.8359 C   0  0  0  0  0  0  0  0  0  0  0  0
    3.8388    0.7601   19.0443 C   0  0  0  0  0  0  0  0  0  0  0  0
    2.6609    1.5385   19.1646 C   0  0  0  0  0  0  0  0  0  0  0  0
    2.3506    2.1574   20.3424 C   0  0  0  0  0  0  0  0  0  0  0  0
    3.2295    2.0542   21.4429 C   0  0  0  0  0  0  0  0  0  0  0  0
    4.3866    1.3202   21.3470 C   0  0  0  0  0  0  0  0  0  0  0  0
    4.7169    0.6379   20.1468 C   0  0  0  0  0  0  0  0  0  0  0  0
  2  1  1  1
  2  3  1  0
  3  4  1  0
  4  5  2  0
  5  6  1  0
  6  7  1  0
  7  8  1  0
  8  9  1  0
  9 10  1  0
 10 11  1  0
 11 12  2  0
 11 13  1  0
 13 14  1  0
 14 15  2  0
 15 16  1  0
 16 17  2  0
 17 18  1  0
 18 19  2  0
 19 20  1  0
 20 21  2  0
 21 22  1  0
 22 23  2  0
 10  2  1  0
 23 14  1  0
  7  3  2  0
 23 18  1  0
M  END
>  <cnnaffinities>  (10) 
[5.40567, 5.31416]

>  <score>  (10) 
5.40567

>  <index>  (10) 
4

>  <Smiles>  (10) 
C([C@]1(c2c(c(sc2C(C(N1C(=O)C(c1c(nc(c2c(c(c(c(c12)[H])[H])[H])[H])[H])[H])([H])[H])([H])[H])([H])[H])[H])[H])[H])([H])([H])[H]

>  <h>  (10) 
<NA>

>  <Training>  (10) 
True

>  <Success>  (10) 
True

>  <enamine_searched>  (10) 
False

>  <enamine_id>  (10) 
nan

$$$$

     RDKit          3D

 31 35  0  0  0  0  0  0  0  0999 V2000
   10.0801    0.6763   22.4301 C   0  0  0  0  0  0  0  0  0  0  0  0
    8.6430    0.1613   22.4139 C   0  0  1  0  0  0  0  0  0  0  0  0
    7.8096    0.7188   21.2513 C   0  0  0  0  0  0  0  0  0  0  0  0
    6.8068   -0.3103   21.0194 N   0  0  0  0  0  0  0  0  0  0  0  0
    5.8539   -0.2033   19.9772 C   0  0  0  0  0  0  0  0  0  0  0  0
    6.0548   -0.8281   18.7711 C   0  0  0  0  0  0  0  0  0  0  0  0
    5.2548   -0.6601   17.6889 N   0  0  0  0  0  0  0  0  0  0  0  0
    4.1954    0.0984   17.8386 C   0  0  0  0  0  0  0  0  0  0  0  0
    3.8340    0.7515   19.0525 C   0  0  0  0  0  0  0  0  0  0  0  0
    2.6531    1.5286   19.1788 C   0  0  0  0  0  0  0  0  0  0  0  0
    2.3449    2.1328   20.3660 C   0  0  0  0  0  0  0  0  0  0  0  0
    3.2127    2.0137   21.4753 C   0  0  0  0  0  0  0  0  0  0  0  0
    4.3682    1.2762   21.3757 C   0  0  0  0  0  0  0  0  0  0  0  0
    4.6970    0.6170   20.1609 C   0  0  0  0  0  0  0  0  0  0  0  0
    7.1678   -1.5431   21.5190 C   0  0  0  0  0  0  0  0  0  0  0  0
    6.5426   -2.5667   21.3195 O   0  0  0  0  0  0  0  0  0  0  0  0
    8.4633   -1.3944   22.3314 C   0  0  1  0  0  0  0  0  0  0  0  0
    9.5636   -2.1182   21.5390 C   0  0  0  0  0  0  0  0  0  0  0  0
   10.7918   -2.2490   22.3168 N   0  0  0  0  0  0  0  0  0  0  0  0
   12.0860   -2.1675   21.6799 C   0  0  0  0  0  0  0  0  0  0  0  0
   12.9216   -0.9933   22.0238 C   0  0  0  0  0  0  0  0  0  0  0  0
   13.7064   -0.1982   22.3305 N   0  0  0  0  0  0  0  0  0  0  0  0
   10.7897   -2.7358   23.6056 C   0  0  0  0  0  0  0  0  0  0  0  0
   11.7957   -3.1669   24.1459 O   0  0  0  0  0  0  0  0  0  0  0  0
    9.4757   -2.6488   24.3059 C   0  0  0  0  0  0  0  0  0  0  0  0
    9.3943   -3.1508   25.6043 C   0  0  0  0  0  0  0  0  0  0  0  0
    8.2124   -3.0458   26.3172 C   0  0  0  0  0  0  0  0  0  0  0  0
    7.1235   -2.4203   25.7177 C   0  0  0  0  0  0  0  0  0  0  0  0
    5.9762   -2.3078   26.4100 F   0  0  0  0  0  0  0  0  0  0  0  0
    7.1838   -1.9107   24.4350 C   0  0  0  0  0  0  0  0  0  0  0  0
    8.3697   -2.0350   23.7031 C   0  0  0  0  0  0  0  0  0  0  0  0
  2  1  1  6
  2  3  1  0
  3  4  1  0
  4  5  1  0
  5  6  2  0
  6  7  1  0
  7  8  2  0
  8  9  1  0
  9 10  2  0
 10 11  1  0
 11 12  2  0
 12 13  1  0
 13 14  2  0
  4 15  1  0
 15 16  2  0
 15 17  1  0
 17 18  1  6
 18 19  1  0
 19 20  1  0
 20 21  1  0
 21 22  3  0
 19 23  1  0
 23 24  2  0
 23 25  1  0
 25 26  2  0
 26 27  1  0
 27 28  2  0
 28 29  1  0
 28 30  1  0
 30 31  2  0
 17  2  1  0
 31 25  1  0
 14  5  1  0
 31 17  1  0
 14  9  1  0
M  END
>  <cnnaffinities>  (11) 
[6.25598]

>  <score>  (11) 
6.25598

>  <index>  (11) 
5

>  <Smiles>  (11) 
C([C@]1(C(N(c2c(nc(c3c(c(c(c(c23)[H])[H])[H])[H])[H])[H])C(=O)[C@]21C(N(C(C#N)([H])[H])C(=O)c1c(c(c(F)c(c21)[H])[H])[H])([H])[H])([H])[H])[H])([H])([H])[H]

>  <h>  (11) 
<NA>

>  <Training>  (11) 
True

>  <Success>  (11) 
True

>  <enamine_searched>  (11) 
False

>  <enamine_id>  (11) 
nan

$$$$

     RDKit          3D

 36 40  0  0  0  0  0  0  0  0999 V2000
    6.7814    6.1007   20.9171 C   0  0  0  0  0  0  0  0  0  0  0  0
    7.8244    7.0882   21.4310 C   0  0  0  0  0  0  0  0  0  0  0  0
    8.0228    7.1259   22.9292 C   0  0  0  0  0  0  0  0  0  0  0  0
    8.2151    8.1263   23.5744 O   0  0  0  0  0  0  0  0  0  0  0  0
    7.9915    5.8499   23.6783 N   0  0  1  0  0  0  0  0  0  0  0  0
    6.5634    5.4982   24.1857 C   0  0  0  0  0  0  0  0  0  0  0  0
    6.5762    4.0809   24.6924 C   0  0  0  0  0  0  0  0  0  0  0  0
    6.9755    3.1225   23.5778 C   0  0  0  0  0  0  0  0  0  0  0  0
    8.3542    3.4279   23.0311 C   0  0  0  0  0  0  0  0  0  0  0  0
    9.1766    2.4521   22.4325 C   0  0  0  0  0  0  0  0  0  0  0  0
    8.6705    1.1366   22.1694 N   0  0  0  0  0  0  0  0  0  0  0  0
    9.1355    0.0762   23.0528 C   0  0  0  0  0  0  0  0  0  0  0  0
   10.5552   -0.3869   22.7724 C   0  0  0  0  0  0  0  0  0  0  0  0
   11.5563   -0.1075   23.7033 C   0  0  0  0  0  0  0  0  0  0  0  0
   12.8817   -0.4412   23.4551 C   0  0  0  0  0  0  0  0  0  0  0  0
   13.2305   -1.1249   22.2987 C   0  0  0  0  0  0  0  0  0  0  0  0
   12.2199   -1.4723   21.4135 C   0  0  0  0  0  0  0  0  0  0  0  0
   12.6338   -2.4413   20.0341 Cl  0  0  0  0  0  0  0  0  0  0  0  0
   10.8982   -1.0859   21.6144 C   0  0  0  0  0  0  0  0  0  0  0  0
    7.7542    1.0152   21.1413 C   0  0  0  0  0  0  0  0  0  0  0  0
    7.5991    1.9074   20.3315 O   0  0  0  0  0  0  0  0  0  0  0  0
    6.9229   -0.2778   21.0787 C   0  0  0  0  0  0  0  0  0  0  0  0
    5.8909   -0.1821   19.9968 C   0  0  0  0  0  0  0  0  0  0  0  0
    6.0989   -0.7737   18.7795 C   0  0  0  0  0  0  0  0  0  0  0  0
    5.2922   -0.6421   17.6937 N   0  0  0  0  0  0  0  0  0  0  0  0
    4.2237    0.1060   17.8386 C   0  0  0  0  0  0  0  0  0  0  0  0
    3.8689    0.7652   19.0472 C   0  0  0  0  0  0  0  0  0  0  0  0
    2.7043    1.5647   19.1579 C   0  0  0  0  0  0  0  0  0  0  0  0
    2.3759    2.1641   20.3433 C   0  0  0  0  0  0  0  0  0  0  0  0
    3.2329    2.0332   21.4597 C   0  0  0  0  0  0  0  0  0  0  0  0
    4.3850    1.2911   21.3684 C   0  0  0  0  0  0  0  0  0  0  0  0
    4.7259    0.6227   20.1622 C   0  0  0  0  0  0  0  0  0  0  0  0
   10.5032    2.7301   22.1308 C   0  0  0  0  0  0  0  0  0  0  0  0
   10.9941    4.0236   22.2724 C   0  0  0  0  0  0  0  0  0  0  0  0
   10.1697    5.0224   22.7756 C   0  0  0  0  0  0  0  0  0  0  0  0
    8.8519    4.7235   23.1289 C   0  0  0  0  0  0  0  0  0  0  0  0
  1  2  1  0
  2  3  1  0
  3  4  2  0
  5  3  1  6
  5  6  1  0
  6  7  1  0
  7  8  1  0
  8  9  1  0
  9 10  2  0
 10 11  1  0
 11 12  1  0
 12 13  1  0
 13 14  2  0
 14 15  1  0
 15 16  2  0
 16 17  1  0
 17 18  1  0
 17 19  2  0
 11 20  1  0
 20 21  2  0
 20 22  1  0
 22 23  1  0
 23 24  2  0
 24 25  1  0
 25 26  2  0
 26 27  1  0
 27 28  2  0
 28 29  1  0
 29 30  2  0
 30 31  1  0
 31 32  2  0
 10 33  1  0
 33 34  2  0
 34 35  1  0
 35 36  2  0
 36  5  1  0
 36  9  1  0
 19 13  1  0
 32 23  1  0
 32 27  1  0
M  CHG  1   5   1
M  END
>  <cnnaffinities>  (12) 
[6.28992]

>  <score>  (12) 
6.28992

>  <index>  (12) 
6

>  <Smiles>  (12) 
C(C(C(=O)[N@+]1(C(C(C(c2c(N(C(c3c(c(c(c(Cl)c3[H])[H])[H])[H])([H])[H])C(=O)C(c3c(nc(c4c(c(c(c(c34)[H])[H])[H])[H])[H])[H])([H])[H])c(c(c(c12)[H])[H])[H])([H])[H])([H])[H])([H])[H])[H])([H])[H])([H])([H])[H]

>  <h>  (12) 
<NA>

>  <Training>  (12) 
True

>  <Success>  (12) 
True

>  <enamine_searched>  (12) 
False

>  <enamine_id>  (12) 
nan

$$$$

     RDKit          3D

 36 39  0  0  0  0  0  0  0  0999 V2000
   -7.4111   -4.0793  -23.5377 C   0  0  0  0  0  0  0  0  0  0  0  0
   -6.9196   -3.3772  -22.5174 C   0  0  0  0  0  0  0  0  0  0  0  0
   -7.6116   -2.8257  -21.3000 C   0  0  0  0  0  0  0  0  0  0  0  0
   -7.3851   -1.3772  -21.2357 N   0  0  0  0  0  0  0  0  0  0  0  0
   -8.1743   -0.4396  -21.8983 C   0  0  0  0  0  0  0  0  0  0  0  0
   -8.2554    0.7003  -21.4822 O   0  0  0  0  0  0  0  0  0  0  0  0
   -8.8947   -0.9029  -23.1757 C   0  0  2  0  0  0  0  0  0  0  0  0
   -8.0404   -0.6951  -24.4473 C   0  0  0  0  0  0  0  0  0  0  0  0
   -7.9512    0.7186  -24.8075 N   0  0  0  0  0  0  0  0  0  0  0  0
   -6.7024    1.2700  -25.3116 C   0  0  0  0  0  0  0  0  0  0  0  0
   -6.5992    1.3285  -26.8416 C   0  0  0  0  0  0  0  0  0  0  0  0
   -6.6557    2.3753  -27.4661 O   0  0  0  0  0  0  0  0  0  0  0  0
   -6.4255    0.1336  -27.4661 N   0  0  0  0  0  0  0  0  0  0  0  0
   -6.3832    0.0939  -28.9152 C   0  0  0  0  0  0  0  0  0  0  0  0
   -9.0334    1.5626  -24.7431 C   0  0  0  0  0  0  0  0  0  0  0  0
   -9.0133    2.6958  -25.1956 O   0  0  0  0  0  0  0  0  0  0  0  0
  -10.2501    1.0135  -24.0688 C   0  0  0  0  0  0  0  0  0  0  0  0
  -11.4393    1.7327  -24.1693 C   0  0  0  0  0  0  0  0  0  0  0  0
  -12.6041    1.2369  -23.6155 C   0  0  0  0  0  0  0  0  0  0  0  0
  -12.5603    0.0072  -22.9564 C   0  0  0  0  0  0  0  0  0  0  0  0
  -14.0392   -0.7013  -22.3831 Cl  0  0  0  0  0  0  0  0  0  0  0  0
  -11.3666   -0.6753  -22.7849 C   0  0  0  0  0  0  0  0  0  0  0  0
  -10.1961   -0.1738  -23.3492 C   0  0  0  0  0  0  0  0  0  0  0  0
   -6.5649   -0.8609  -20.1989 C   0  0  0  0  0  0  0  0  0  0  0  0
   -6.9099   -1.0724  -18.8884 C   0  0  0  0  0  0  0  0  0  0  0  0
   -6.2558   -0.5615  -17.8218 N   0  0  0  0  0  0  0  0  0  0  0  0
   -5.2072    0.1885  -18.0898 C   0  0  0  0  0  0  0  0  0  0  0  0
   -4.7356    0.4830  -19.4011 C   0  0  0  0  0  0  0  0  0  0  0  0
   -3.6230    1.3322  -19.6358 C   0  0  0  0  0  0  0  0  0  0  0  0
   -3.2195    1.6184  -20.9126 C   0  0  0  0  0  0  0  0  0  0  0  0
   -3.8952    1.0569  -22.0174 C   0  0  0  0  0  0  0  0  0  0  0  0
   -4.9562    0.2092  -21.8223 C   0  0  0  0  0  0  0  0  0  0  0  0
   -5.4226   -0.0654  -20.5041 C   0  0  0  0  0  0  0  0  0  0  0  0
   -5.4809   -2.8556  -22.4955 C   0  0  0  0  0  0  0  0  0  0  0  0
   -5.0992   -2.3076  -23.5560 O   0  0  0  0  0  0  0  0  0  0  0  0
   -4.8840   -2.9789  -21.4109 O   0  0  0  0  0  0  0  0  0  0  0  0
  1  2  2  0
  2  3  1  0
  3  4  1  0
  4  5  1  0
  5  6  2  0
  7  5  1  1
  7  8  1  0
  8  9  1  0
  9 10  1  0
 10 11  1  0
 11 12  2  0
 11 13  1  0
 13 14  1  0
  9 15  1  0
 15 16  2  0
 15 17  1  0
 17 18  2  0
 18 19  1  0
 19 20  2  0
 20 21  1  0
 20 22  1  0
 22 23  2  0
  4 24  1  0
 24 25  2  0
 25 26  1  0
 26 27  2  0
 27 28  1  0
 28 29  2  0
 29 30  1  0
 30 31  2  0
 31 32  1  0
 32 33  2  0
  2 34  1  0
 34 35  2  0
 34 36  1  0
 23  7  1  0
 33 24  1  0
 23 17  1  0
 33 28  1  0
M  CHG  1  36  -1
M  END
>  <cnnaffinities>  (13) 
[5.77933, 6.07149, 5.99143]

>  <score>  (13) 
5.77933

>  <index>  (13) 
5

>  <Smiles>  (13) 
C(=C(C(N(C(=O)[C@@]1(C(N(C(C(=O)N(C([H])([H])[H])[H])([H])[H])C(=O)c2c(c(c(Cl)c(c12)[H])[H])[H])([H])[H])[H])c1c(nc(c2c(c(c(c(c12)[H])[H])[H])[H])[H])[H])([H])[H])C(=O)[O-])([H])[H]

>  <h>  (13) 
<NA>

>  <Training>  (13) 
True

>  <Success>  (13) 
True

>  <enamine_searched>  (13) 
False

>  <enamine_id>  (13) 
nan

$$$$

     RDKit          3D

 19 21  0  0  0  0  0  0  0  0999 V2000
    5.3320   -1.8043   22.1518 O   0  0  0  0  0  0  0  0  0  0  0  0
    6.5018   -1.4924   22.0337 C   0  0  0  0  0  0  0  0  0  0  0  0
    6.9040   -0.3619   21.0595 C   0  0  0  0  0  0  0  0  0  0  0  0
    5.8720   -0.1735   19.9740 C   0  0  0  0  0  0  0  0  0  0  0  0
    6.0345   -0.8029   18.7694 C   0  0  0  0  0  0  0  0  0  0  0  0
    5.2190   -0.6764   17.6910 N   0  0  0  0  0  0  0  0  0  0  0  0
    4.1615    0.0859   17.8306 C   0  0  0  0  0  0  0  0  0  0  0  0
    3.8204    0.7440   19.0423 C   0  0  0  0  0  0  0  0  0  0  0  0
    2.6340    1.5087   19.1713 C   0  0  0  0  0  0  0  0  0  0  0  0
    2.3168    2.1248   20.3505 C   0  0  0  0  0  0  0  0  0  0  0  0
    3.1920    2.0136   21.4524 C   0  0  0  0  0  0  0  0  0  0  0  0
    4.3502    1.2801   21.3538 C   0  0  0  0  0  0  0  0  0  0  0  0
    4.6963    0.6167   20.1479 C   0  0  0  0  0  0  0  0  0  0  0  0
    7.5014   -2.1496   22.7247 N   0  0  0  0  0  0  0  0  0  0  0  0
    7.3077   -3.5620   23.0392 C   0  0  0  0  0  0  0  0  0  0  0  0
    7.8504   -3.9180   24.4149 C   0  0  0  0  0  0  0  0  0  0  0  0
    9.2991   -3.4744   24.5668 C   0  0  0  0  0  0  0  0  0  0  0  0
    9.4082   -1.9852   24.2721 C   0  0  0  0  0  0  0  0  0  0  0  0
    8.8519   -1.6397   22.8935 C   0  0  0  0  0  0  0  0  0  0  0  0
  1  2  2  0
  2  3  1  0
  3  4  1  0
  4  5  2  0
  5  6  1  0
  6  7  2  0
  7  8  1  0
  8  9  2  0
  9 10  1  0
 10 11  2  0
 11 12  1  0
 12 13  2  0
  2 14  1  0
 14 15  1  0
 15 16  1  0
 16 17  1  0
 17 18  1  0
 18 19  1  0
 13  4  1  0
 19 14  1  0
 13  8  1  0
M  END
>  <cnnaffinities>  (14) 
[4.79977, 4.87201, 4.54511, 4.97761, 4.97761, 5.06581, 5.06578]

>  <score>  (14) 
4.79977

>  <index>  (14) 
7

>  <Smiles>  (14) 
O=C(C(c1c(nc(c2c(c(c(c(c12)[H])[H])[H])[H])[H])[H])([H])[H])N1C(C(C(C(C1([H])[H])([H])[H])([H])[H])([H])[H])([H])[H]

>  <h>  (14) 
<NA>

>  <Training>  (14) 
True

>  <Success>  (14) 
True

>  <enamine_searched>  (14) 
False

>  <enamine_id>  (14) 
nan

$$$$

     RDKit          3D

 21 23  0  0  0  0  0  0  0  0999 V2000
   -6.6428    0.8187  -28.1893 C   0  0  0  0  0  0  0  0  0  0  0  0
   -6.4667    1.4952  -26.8306 C   0  0  0  0  0  0  0  0  0  0  0  0
   -7.4791    1.0496  -25.7707 C   0  0  0  0  0  0  0  0  0  0  0  0
   -7.4107    1.9388  -24.5318 C   0  0  0  0  0  0  0  0  0  0  0  0
   -8.3969    1.5004  -23.4522 C   0  0  0  0  0  0  0  0  0  0  0  0
   -8.1797    0.0961  -23.1259 N   0  0  0  0  0  0  0  0  0  0  0  0
   -8.3785   -0.3126  -21.8034 C   0  0  0  0  0  0  0  0  0  0  0  0
   -9.1795    0.2211  -21.0677 O   0  0  0  0  0  0  0  0  0  0  0  0
   -7.4430   -1.4113  -21.2716 C   0  0  0  0  0  0  0  0  0  0  0  0
   -6.5705   -0.8344  -20.1738 C   0  0  0  0  0  0  0  0  0  0  0  0
   -6.8771   -1.0415  -18.8546 C   0  0  0  0  0  0  0  0  0  0  0  0
   -6.1960   -0.5354  -17.7899 N   0  0  0  0  0  0  0  0  0  0  0  0
   -5.1579    0.2201  -18.0621 C   0  0  0  0  0  0  0  0  0  0  0  0
   -4.7239    0.5340  -19.3781 C   0  0  0  0  0  0  0  0  0  0  0  0
   -3.6027    1.3686  -19.6215 C   0  0  0  0  0  0  0  0  0  0  0  0
   -3.2132    1.6629  -20.9002 C   0  0  0  0  0  0  0  0  0  0  0  0
   -3.9321    1.1292  -21.9941 C   0  0  0  0  0  0  0  0  0  0  0  0
   -5.0193    0.3167  -21.7848 C   0  0  0  0  0  0  0  0  0  0  0  0
   -5.4497   -0.0021  -20.4702 C   0  0  0  0  0  0  0  0  0  0  0  0
   -8.2712   -0.8125  -24.2631 C   0  0  0  0  0  0  0  0  0  0  0  0
   -7.3000   -0.4105  -25.3639 C   0  0  0  0  0  0  0  0  0  0  0  0
  1  2  1  0
  2  3  1  0
  3  4  1  0
  4  5  1  0
  5  6  1  0
  6  7  1  0
  7  8  2  0
  7  9  1  0
  9 10  1  0
 10 11  2  0
 11 12  1  0
 12 13  2  0
 13 14  1  0
 14 15  2  0
 15 16  1  0
 16 17  2  0
 17 18  1  0
 18 19  2  0
  6 20  1  0
 20 21  1  0
 21  3  1  0
 19 10  1  0
 19 14  1  0
M  END
>  <cnnaffinities>  (15) 
[4.94394, 4.93016, 4.76273, 4.76303, 5.10165, 5.10175, 4.7091, 4.74538, 5.02215, 5.02211, 5.13282, 5.13511, 5.13306, 4.91719, 4.9172, 5.12784, 4.95749, 5.13662, 5.1366, 4.69826, 4.69828, 4.92884, 4.75065, 4.95425, 4.96067, 4.82533, 4.82545]

>  <score>  (15) 
4.94394

>  <index>  (15) 
6

>  <Smiles>  (15) 
C(C(C1(C(C(N(C(=O)C(c2c(nc(c3c(c(c(c(c23)[H])[H])[H])[H])[H])[H])([H])[H])C(C1([H])[H])([H])[H])([H])[H])([H])[H])[H])([H])[H])([H])([H])[H]

>  <h>  (15) 
<NA>

>  <Training>  (15) 
True

>  <Success>  (15) 
True

>  <enamine_searched>  (15) 
False

>  <enamine_id>  (15) 
nan

$$$$

     RDKit          3D

 26 29  0  0  0  0  0  0  0  0999 V2000
  -10.1000   -6.0158  -27.5600 C   0  0  0  0  0  0  0  0  0  0  0  0
   -8.9758   -5.3145  -26.7880 C   0  0  0  0  0  0  0  0  0  0  0  0
   -9.2252   -5.5330  -25.0302 S   0  0  0  0  0  0  0  0  0  0  0  0
   -9.0507   -6.9344  -24.7202 O   0  0  0  0  0  0  0  0  0  0  0  0
  -10.4727   -4.8436  -24.7078 O   0  0  0  0  0  0  0  0  0  0  0  0
   -7.9502   -4.7103  -24.2682 N   0  0  0  0  0  0  0  0  0  0  0  0
   -8.0611   -4.6983  -22.7657 C   0  0  0  0  0  0  0  0  0  0  0  0
   -8.0650   -3.1563  -22.7628 C   0  0  0  0  0  0  0  0  0  0  0  0
   -7.9914   -3.2243  -24.3125 C   0  0  0  0  0  0  0  0  0  0  0  0
   -6.8676   -2.5275  -22.0601 C   0  0  0  0  0  0  0  0  0  0  0  0
   -5.7044   -2.8115  -22.2153 O   0  0  0  0  0  0  0  0  0  0  0  0
   -7.3687   -1.5408  -21.2106 N   0  0  0  0  0  0  0  0  0  0  0  0
   -6.6003   -0.8680  -20.1984 C   0  0  0  0  0  0  0  0  0  0  0  0
   -6.9122   -1.0640  -18.8752 C   0  0  0  0  0  0  0  0  0  0  0  0
   -6.2211   -0.5464  -17.8256 N   0  0  0  0  0  0  0  0  0  0  0  0
   -5.1823    0.2048  -18.0943 C   0  0  0  0  0  0  0  0  0  0  0  0
   -4.7511    0.5211  -19.4116 C   0  0  0  0  0  0  0  0  0  0  0  0
   -3.6187    1.3563  -19.6361 C   0  0  0  0  0  0  0  0  0  0  0  0
   -3.2269    1.6608  -20.9091 C   0  0  0  0  0  0  0  0  0  0  0  0
   -3.9566    1.1466  -22.0045 C   0  0  0  0  0  0  0  0  0  0  0  0
   -5.0507    0.3392  -21.8116 C   0  0  0  0  0  0  0  0  0  0  0  0
   -5.4785   -0.0159  -20.5013 C   0  0  0  0  0  0  0  0  0  0  0  0
   -8.7643   -1.3867  -21.4062 C   0  0  0  0  0  0  0  0  0  0  0  0
   -9.4439   -0.4683  -21.0101 O   0  0  0  0  0  0  0  0  0  0  0  0
   -9.1711   -2.4552  -22.1684 N   0  0  0  0  0  0  0  0  0  0  0  0
  -10.5651   -2.7135  -22.4920 C   0  0  0  0  0  0  0  0  0  0  0  0
  1  2  1  0
  2  3  1  0
  3  4  2  0
  3  5  2  0
  3  6  1  0
  6  7  1  0
  7  8  1  0
  8  9  1  0
  8 10  1  0
 10 11  2  0
 10 12  1  0
 12 13  1  0
 13 14  2  0
 14 15  1  0
 15 16  2  0
 16 17  1  0
 17 18  2  0
 18 19  1  0
 19 20  2  0
 20 21  1  0
 21 22  2  0
 12 23  1  0
 23 24  2  0
 23 25  1  0
 25 26  1  0
  9  6  1  0
 22 13  1  0
 25  8  1  0
 22 17  1  0
M  END
>  <cnnaffinities>  (16) 
[5.36909, 5.37184, 5.38035, 5.4033, 5.39372, 5.35691, 5.3847, 5.39211, 5.31055, 5.38269, 5.38765, 5.38517, 5.2838, 5.28403, 5.28387, 5.28631]

>  <score>  (16) 
5.36909

>  <index>  (16) 
7

>  <Smiles>  (16) 
C(C(S(=O)(=O)N1C(C2(C1([H])[H])C(=O)N(c1c(nc(c3c(c(c(c(c13)[H])[H])[H])[H])[H])[H])C(=O)N2C([H])([H])[H])([H])[H])([H])[H])([H])([H])[H]

>  <h>  (16) 
<NA>

>  <Training>  (16) 
True

>  <Success>  (16) 
True

>  <enamine_searched>  (16) 
False

>  <enamine_id>  (16) 
nan

$$$$

     RDKit          3D

 35 39  0  0  0  0  0  0  0  0999 V2000
   -7.4077    3.3839  -21.7991 C   0  0  0  0  0  0  0  0  0  0  0  0
   -8.2898    2.9281  -22.8567 N   0  0  0  0  0  0  0  0  0  0  0  0
   -7.7173    2.2335  -23.8666 C   0  0  0  0  0  0  0  0  0  0  0  0
   -6.5004    2.1257  -23.9746 O   0  0  0  0  0  0  0  0  0  0  0  0
   -8.6638    1.6066  -24.8912 C   0  0  0  0  0  0  0  0  0  0  0  0
   -9.3846    0.4499  -24.3918 N   0  0  0  0  0  0  0  0  0  0  0  0
   -8.6723   -0.8059  -24.2289 C   0  0  0  0  0  0  0  0  0  0  0  0
   -9.0620   -1.5225  -22.9077 C   0  0  2  0  0  0  0  0  0  0  0  0
   -8.5147   -0.7314  -21.6884 C   0  0  0  0  0  0  0  0  0  0  0  0
   -8.9613    0.2931  -21.2150 O   0  0  0  0  0  0  0  0  0  0  0  0
   -7.4050   -1.3858  -21.2004 N   0  0  0  0  0  0  0  0  0  0  0  0
   -6.6057   -0.8102  -20.1730 C   0  0  0  0  0  0  0  0  0  0  0  0
   -6.9116   -1.0417  -18.8565 C   0  0  0  0  0  0  0  0  0  0  0  0
   -6.2113   -0.5490  -17.8036 N   0  0  0  0  0  0  0  0  0  0  0  0
   -5.1711    0.2060  -18.0735 C   0  0  0  0  0  0  0  0  0  0  0  0
   -4.7329    0.5300  -19.3895 C   0  0  0  0  0  0  0  0  0  0  0  0
   -3.6061    1.3640  -19.6366 C   0  0  0  0  0  0  0  0  0  0  0  0
   -3.2204    1.6553  -20.9165 C   0  0  0  0  0  0  0  0  0  0  0  0
   -3.9412    1.1263  -22.0109 C   0  0  0  0  0  0  0  0  0  0  0  0
   -5.0343    0.3192  -21.7981 C   0  0  0  0  0  0  0  0  0  0  0  0
   -5.4666    0.0023  -20.4817 C   0  0  0  0  0  0  0  0  0  0  0  0
   -7.0683   -2.5995  -21.9199 C   0  0  0  0  0  0  0  0  0  0  0  0
   -8.3290   -2.8924  -22.7580 C   0  0  2  0  0  0  0  0  0  0  0  0
   -7.9800   -3.6576  -24.0328 C   0  0  0  0  0  0  0  0  0  0  0  0
   -9.1505   -3.9386  -24.7607 O   0  0  0  0  0  0  0  0  0  0  0  0
   -8.8659   -4.5845  -25.9793 C   0  0  0  0  0  0  0  0  0  0  0  0
  -10.5804   -1.5697  -22.8363 C   0  0  0  0  0  0  0  0  0  0  0  0
  -11.2168   -2.4500  -21.9517 C   0  0  0  0  0  0  0  0  0  0  0  0
  -12.5957   -2.4612  -21.8560 C   0  0  0  0  0  0  0  0  0  0  0  0
  -13.3826   -3.5338  -20.7365 Cl  0  0  0  0  0  0  0  0  0  0  0  0
  -13.3838   -1.6006  -22.6195 C   0  0  0  0  0  0  0  0  0  0  0  0
  -12.7621   -0.6794  -23.4380 C   0  0  0  0  0  0  0  0  0  0  0  0
  -11.3704   -0.6317  -23.5184 C   0  0  0  0  0  0  0  0  0  0  0  0
  -10.7429    0.5233  -24.2414 C   0  0  0  0  0  0  0  0  0  0  0  0
  -11.3976    1.4800  -24.6270 O   0  0  0  0  0  0  0  0  0  0  0  0
  1  2  1  0
  2  3  1  0
  3  4  2  0
  3  5  1  0
  5  6  1  0
  6  7  1  0
  8  7  1  6
  8  9  1  0
  9 10  2  0
  9 11  1  0
 11 12  1  0
 12 13  2  0
 13 14  1  0
 14 15  2  0
 15 16  1  0
 16 17  2  0
 17 18  1  0
 18 19  2  0
 19 20  1  0
 20 21  2  0
 11 22  1  0
 22 23  1  0
 23 24  1  6
 24 25  1  0
 25 26  1  0
  8 27  1  0
 27 28  2  0
 28 29  1  0
 29 30  1  0
 29 31  2  0
 31 32  1  0
 32 33  2  0
 33 34  1  0
 34 35  2  0
 34  6  1  0
 23  8  1  0
 33 27  1  0
 21 12  1  0
 21 16  1  0
M  END
>  <cnnaffinities>  (17) 
[6.51707, 6.41946, 6.45131, 6.35656, 6.64948]

>  <score>  (17) 
6.51707

>  <index>  (17) 
8

>  <Smiles>  (17) 
C(N(C(=O)C(N1C([C@@]2(C(=O)N(c3c(nc(c4c(c(c(c(c34)[H])[H])[H])[H])[H])[H])C([C@@]2(C(OC([H])([H])[H])([H])[H])[H])([H])[H])c2c(c(Cl)c(c(c2C1=O)[H])[H])[H])([H])[H])([H])[H])[H])([H])([H])[H]

>  <h>  (17) 
<NA>

>  <Training>  (17) 
True

>  <Success>  (17) 
True

>  <enamine_searched>  (17) 
False

>  <enamine_id>  (17) 
nan

$$$$

     RDKit          3D

 38 43  0  0  0  0  0  0  0  0999 V2000
    9.8371   -1.5725   21.9330 C   0  0  0  0  0  0  0  0  0  0  0  0
    8.7866   -0.5001   22.2469 C   0  0  1  0  0  0  0  0  0  0  0  0
    8.1316   -0.0313   20.9335 C   0  0  0  0  0  0  0  0  0  0  0  0
    6.7523   -0.4474   21.0374 N   0  0  0  0  0  0  0  0  0  0  0  0
    5.8468   -0.2159   19.9892 C   0  0  0  0  0  0  0  0  0  0  0  0
    6.0889   -0.7675   18.7588 C   0  0  0  0  0  0  0  0  0  0  0  0
    5.2890   -0.6129   17.6812 N   0  0  0  0  0  0  0  0  0  0  0  0
    4.2125    0.1217   17.8428 C   0  0  0  0  0  0  0  0  0  0  0  0
    3.8589    0.7619   19.0669 C   0  0  0  0  0  0  0  0  0  0  0  0
    2.6920    1.5596   19.1785 C   0  0  0  0  0  0  0  0  0  0  0  0
    2.3812    2.1745   20.3592 C   0  0  0  0  0  0  0  0  0  0  0  0
    3.2503    2.0671   21.4672 C   0  0  0  0  0  0  0  0  0  0  0  0
    4.3996    1.3217   21.3880 C   0  0  0  0  0  0  0  0  0  0  0  0
    4.7060    0.6167   20.1829 C   0  0  0  0  0  0  0  0  0  0  0  0
    6.4068   -1.0486   22.2188 C   0  0  0  0  0  0  0  0  0  0  0  0
    5.3334   -1.5828   22.4489 O   0  0  0  0  0  0  0  0  0  0  0  0
    7.6011   -0.9306   23.1821 C   0  0  1  0  0  0  0  0  0  0  0  0
    7.8151   -2.2972   23.8549 C   0  0  0  0  0  0  0  0  0  0  0  0
    6.8082   -2.5447   24.8682 N   0  0  0  0  0  0  0  0  0  0  0  0
    6.2702   -3.8806   25.0160 C   0  0  0  0  0  0  0  0  0  0  0  0
    4.8498   -3.9190   25.5654 C   0  0  0  0  0  0  0  0  0  0  0  0
    4.6095   -4.5989   26.5493 O   0  0  0  0  0  0  0  0  0  0  0  0
    3.8650   -3.2361   24.8941 N   0  0  0  0  0  0  0  0  0  0  0  0
    2.6646   -2.9967   25.6968 C   0  0  0  0  0  0  0  0  0  0  0  0
    2.8727   -1.8463   26.6379 C   0  0  0  0  0  0  0  0  0  0  0  0
    2.9439   -1.8274   28.0155 C   0  0  0  0  0  0  0  0  0  0  0  0
    3.1941   -0.4826   28.3426 C   0  0  0  0  0  0  0  0  0  0  0  0
    3.3058    0.2686   27.2544 N   0  0  0  0  0  0  0  0  0  0  0  0
    3.1074   -0.5709   26.2239 N   0  0  0  0  0  0  0  0  0  0  0  0
    3.2200   -0.0306   24.8802 C   0  0  0  0  0  0  0  0  0  0  0  0
    6.7291   -1.6631   25.9218 C   0  0  0  0  0  0  0  0  0  0  0  0
    6.4777   -2.0046   27.0647 O   0  0  0  0  0  0  0  0  0  0  0  0
    6.9255   -0.2319   25.5445 C   0  0  0  0  0  0  0  0  0  0  0  0
    6.6575    0.7370   26.5104 C   0  0  0  0  0  0  0  0  0  0  0  0
    6.7302    2.0802   26.1919 C   0  0  0  0  0  0  0  0  0  0  0  0
    7.0684    2.4489   24.8920 C   0  0  0  0  0  0  0  0  0  0  0  0
    7.3304    1.4851   23.9317 C   0  0  0  0  0  0  0  0  0  0  0  0
    7.2893    0.1208   24.2452 C   0  0  0  0  0  0  0  0  0  0  0  0
  2  1  1  6
  2  3  1  0
  3  4  1  0
  4  5  1  0
  5  6  2  0
  6  7  1  0
  7  8  2  0
  8  9  1  0
  9 10  2  0
 10 11  1  0
 11 12  2  0
 12 13  1  0
 13 14  2  0
  4 15  1  0
 15 16  2  0
 15 17  1  0
 17 18  1  1
 18 19  1  0
 19 20  1  0
 20 21  1  0
 21 22  2  0
 21 23  1  0
 23 24  1  0
 24 25  1  0
 25 26  2  0
 26 27  1  0
 27 28  2  0
 28 29  1  0
 29 30  1  0
 19 31  1  0
 31 32  2  0
 31 33  1  0
 33 34  2  0
 34 35  1  0
 35 36  2  0
 36 37  1  0
 37 38  2  0
 17  2  1  0
 29 25  1  0
 38 33  1  0
 14  5  1  0
 38 17  1  0
 14  9  1  0
M  END
>  <cnnaffinities>  (18) 
[6.11294, 6.1907, 6.05909, 6.13699]

>  <score>  (18) 
6.11294

>  <index>  (18) 
8

>  <Smiles>  (18) 
C([C@]1(C(N(c2c(nc(c3c(c(c(c(c23)[H])[H])[H])[H])[H])[H])C(=O)[C@]21C(N(C(C(=O)N(C(c1c(c(nn1C([H])([H])[H])[H])[H])([H])[H])[H])([H])[H])C(=O)c1c(c(c(c(c21)[H])[H])[H])[H])([H])[H])([H])[H])[H])([H])([H])[H]

>  <h>  (18) 
<NA>

>  <Training>  (18) 
True

>  <Success>  (18) 
True

>  <enamine_searched>  (18) 
False

>  <enamine_id>  (18) 
nan

$$$$

     RDKit          3D

 21 23  0  0  0  0  0  0  0  0999 V2000
  -13.1804   -2.9585  -22.8330 C   0  0  0  0  0  0  0  0  0  0  0  0
  -11.9815   -2.0722  -23.1651 C   0  0  1  0  0  0  0  0  0  0  0  0
  -12.1689   -0.6838  -22.5905 C   0  0  0  0  0  0  0  0  0  0  0  0
  -11.3401    0.3369  -22.7922 C   0  0  0  0  0  0  0  0  0  0  0  0
  -10.0527    0.2067  -23.5776 C   0  0  0  0  0  0  0  0  0  0  0  0
   -9.1097   -0.7887  -23.0456 N   0  0  0  0  0  0  0  0  0  0  0  0
   -8.3821   -0.4073  -21.9287 C   0  0  0  0  0  0  0  0  0  0  0  0
   -8.4756    0.7174  -21.4727 O   0  0  0  0  0  0  0  0  0  0  0  0
   -7.4315   -1.4339  -21.2725 C   0  0  0  0  0  0  0  0  0  0  0  0
   -6.5794   -0.8284  -20.1802 C   0  0  0  0  0  0  0  0  0  0  0  0
   -6.8784   -1.0399  -18.8605 C   0  0  0  0  0  0  0  0  0  0  0  0
   -6.1979   -0.5363  -17.7937 N   0  0  0  0  0  0  0  0  0  0  0  0
   -5.1590    0.2194  -18.0624 C   0  0  0  0  0  0  0  0  0  0  0  0
   -4.7255    0.5346  -19.3785 C   0  0  0  0  0  0  0  0  0  0  0  0
   -3.5998    1.3660  -19.6203 C   0  0  0  0  0  0  0  0  0  0  0  0
   -3.2114    1.6587  -20.8999 C   0  0  0  0  0  0  0  0  0  0  0  0
   -3.9342    1.1310  -21.9929 C   0  0  0  0  0  0  0  0  0  0  0  0
   -5.0266    0.3237  -21.7865 C   0  0  0  0  0  0  0  0  0  0  0  0
   -5.4542    0.0017  -20.4714 C   0  0  0  0  0  0  0  0  0  0  0  0
   -9.4084   -2.1777  -23.3800 C   0  0  0  0  0  0  0  0  0  0  0  0
  -10.6679   -2.7456  -22.7180 C   0  0  0  0  0  0  0  0  0  0  0  0
  2  1  1  1
  2  3  1  0
  3  4  2  0
  4  5  1  0
  5  6  1  0
  6  7  1  0
  7  8  2  0
  7  9  1  0
  9 10  1  0
 10 11  2  0
 11 12  1  0
 12 13  2  0
 13 14  1  0
 14 15  2  0
 15 16  1  0
 16 17  2  0
 17 18  1  0
 18 19  2  0
  6 20  1  0
 20 21  1  0
 21  2  1  0
 19 10  1  0
 19 14  1  0
M  END
>  <cnnaffinities>  (19) 
[5.1806, 4.86857]

>  <score>  (19) 
5.1806

>  <index>  (19) 
9

>  <Smiles>  (19) 
C([C@]1(C(=C(C(N(C(=O)C(c2c(nc(c3c(c(c(c(c23)[H])[H])[H])[H])[H])[H])([H])[H])C(C1([H])[H])([H])[H])([H])[H])[H])[H])[H])([H])([H])[H]

>  <h>  (19) 
<NA>

>  <Training>  (19) 
True

>  <Success>  (19) 
True

>  <enamine_searched>  (19) 
False

>  <enamine_id>  (19) 
nan

$$$$

     RDKit          3D

 34 39  0  0  0  0  0  0  0  0999 V2000
   -8.1604   -3.6789  -23.9635 C   0  0  0  0  0  0  0  0  0  0  0  0
   -8.3808   -3.0051  -22.6128 C   0  0  1  0  0  0  0  0  0  0  0  0
   -7.0558   -2.5183  -21.9907 C   0  0  0  0  0  0  0  0  0  0  0  0
   -7.4480   -1.3778  -21.1931 N   0  0  0  0  0  0  0  0  0  0  0  0
   -6.6373   -0.8314  -20.1649 C   0  0  0  0  0  0  0  0  0  0  0  0
   -6.9592   -1.0445  -18.8458 C   0  0  0  0  0  0  0  0  0  0  0  0
   -6.2537   -0.5593  -17.7938 N   0  0  0  0  0  0  0  0  0  0  0  0
   -5.2015    0.1799  -18.0631 C   0  0  0  0  0  0  0  0  0  0  0  0
   -4.7485    0.4731  -19.3828 C   0  0  0  0  0  0  0  0  0  0  0  0
   -3.6414    1.3334  -19.6233 C   0  0  0  0  0  0  0  0  0  0  0  0
   -3.2385    1.6025  -20.9041 C   0  0  0  0  0  0  0  0  0  0  0  0
   -3.8905    0.9915  -21.9983 C   0  0  0  0  0  0  0  0  0  0  0  0
   -4.9603    0.1499  -21.7882 C   0  0  0  0  0  0  0  0  0  0  0  0
   -5.4492   -0.0932  -20.4734 C   0  0  0  0  0  0  0  0  0  0  0  0
   -8.7060   -0.8956  -21.4940 C   0  0  0  0  0  0  0  0  0  0  0  0
   -9.2285    0.0517  -20.9481 O   0  0  0  0  0  0  0  0  0  0  0  0
   -9.3162   -1.7550  -22.6388 C   0  0  1  0  0  0  0  0  0  0  0  0
   -9.1620   -1.0037  -23.9963 C   0  0  0  0  0  0  0  0  0  0  0  0
  -10.0219    0.1544  -24.1202 N   0  0  0  0  0  0  0  0  0  0  0  0
   -9.4747    1.3873  -24.6834 C   0  0  0  0  0  0  0  0  0  0  0  0
   -8.6340    2.1154  -23.6835 C   0  0  0  0  0  0  0  0  0  0  0  0
   -9.0906    2.9241  -22.7008 C   0  0  0  0  0  0  0  0  0  0  0  0
   -7.9981    3.3538  -21.9769 N   0  0  0  0  0  0  0  0  0  0  0  0
   -6.8920    2.8179  -22.5064 C   0  0  0  0  0  0  0  0  0  0  0  0
   -7.2531    2.0382  -23.5468 N   0  0  0  0  0  0  0  0  0  0  0  0
  -11.3230    0.1430  -23.6928 C   0  0  0  0  0  0  0  0  0  0  0  0
  -12.1050    1.0462  -23.9467 O   0  0  0  0  0  0  0  0  0  0  0  0
  -11.7432   -1.0539  -22.8901 C   0  0  0  0  0  0  0  0  0  0  0  0
  -13.1063   -1.1652  -22.6122 C   0  0  0  0  0  0  0  0  0  0  0  0
  -13.5695   -2.1763  -21.8018 C   0  0  0  0  0  0  0  0  0  0  0  0
  -12.6489   -3.0848  -21.2988 C   0  0  0  0  0  0  0  0  0  0  0  0
  -13.1059   -3.9819  -20.4091 F   0  0  0  0  0  0  0  0  0  0  0  0
  -11.3038   -3.0514  -21.6331 C   0  0  0  0  0  0  0  0  0  0  0  0
  -10.8117   -1.9944  -22.4145 C   0  0  0  0  0  0  0  0  0  0  0  0
  2  1  1  6
  2  3  1  0
  3  4  1  0
  4  5  1  0
  5  6  2  0
  6  7  1  0
  7  8  2  0
  8  9  1  0
  9 10  2  0
 10 11  1  0
 11 12  2  0
 12 13  1  0
 13 14  2  0
  4 15  1  0
 15 16  2  0
 15 17  1  0
 17 18  1  6
 18 19  1  0
 19 20  1  0
 20 21  1  0
 21 22  2  0
 22 23  1  0
 23 24  2  0
 24 25  1  0
 19 26  1  0
 26 27  2  0
 26 28  1  0
 28 29  2  0
 29 30  1  0
 30 31  2  0
 31 32  1  0
 31 33  1  0
 33 34  2  0
 17  2  1  0
 25 21  1  0
 34 28  1  0
 14  5  1  0
 34 17  1  0
 14  9  1  0
M  CHG  1  23   1
M  END
>  <cnnaffinities>  (20) 
[6.65746]

>  <score>  (20) 
6.65746

>  <index>  (20) 
10

>  <Smiles>  (20) 
C([C@]1(C(N(c2c(nc(c3c(c(c(c(c23)[H])[H])[H])[H])[H])[H])C(=O)[C@]21C(N(C(c1c([n+](c(n1[H])[H])[H])[H])([H])[H])C(=O)c1c(c(c(F)c(c21)[H])[H])[H])([H])[H])([H])[H])[H])([H])([H])[H]

>  <h>  (20) 
<NA>

>  <Training>  (20) 
True

>  <Success>  (20) 
True

>  <enamine_searched>  (20) 
False

>  <enamine_id>  (20) 
nan

$$$$

     RDKit          3D

 35 40  0  0  0  0  0  0  0  0999 V2000
    7.8058    6.0970   28.2260 C   0  0  0  0  0  0  0  0  0  0  0  0
    7.4291    5.2201   27.0747 C   0  0  0  0  0  0  0  0  0  0  0  0
    7.9339    5.3024   25.7512 C   0  0  0  0  0  0  0  0  0  0  0  0
    7.3442    4.2646   25.1117 C   0  0  0  0  0  0  0  0  0  0  0  0
    7.4514    3.7791   23.6965 C   0  0  0  0  0  0  0  0  0  0  0  0
    8.3903    2.6955   23.5158 N   0  0  0  0  0  0  0  0  0  0  0  0
    7.9696    1.3259   23.7233 C   0  0  0  0  0  0  0  0  0  0  0  0
    8.4485    0.4081   22.5775 C   0  0  2  0  0  0  0  0  0  0  0  0
    7.6808    0.7591   21.2956 C   0  0  0  0  0  0  0  0  0  0  0  0
    7.7348    1.7961   20.6690 O   0  0  0  0  0  0  0  0  0  0  0  0
    6.8756   -0.3014   20.9555 N   0  0  0  0  0  0  0  0  0  0  0  0
    5.8926   -0.1601   19.9523 C   0  0  0  0  0  0  0  0  0  0  0  0
    6.0726   -0.8034   18.7578 C   0  0  0  0  0  0  0  0  0  0  0  0
    5.2548   -0.6686   17.6876 N   0  0  0  0  0  0  0  0  0  0  0  0
    4.1968    0.0968   17.8332 C   0  0  0  0  0  0  0  0  0  0  0  0
    3.8643    0.7753   19.0428 C   0  0  0  0  0  0  0  0  0  0  0  0
    2.6820    1.5529   19.1659 C   0  0  0  0  0  0  0  0  0  0  0  0
    2.3585    2.1506   20.3549 C   0  0  0  0  0  0  0  0  0  0  0  0
    3.2169    2.0283   21.4708 C   0  0  0  0  0  0  0  0  0  0  0  0
    4.3745    1.2926   21.3756 C   0  0  0  0  0  0  0  0  0  0  0  0
    4.7278    0.6454   20.1517 C   0  0  0  0  0  0  0  0  0  0  0  0
    6.9011   -1.4028   21.8831 C   0  0  0  0  0  0  0  0  0  0  0  0
    8.0803   -1.0884   22.8192 C   0  0  2  0  0  0  0  0  0  0  0  0
    7.7870   -1.5010   24.2615 C   0  0  0  0  0  0  0  0  0  0  0  0
    9.9344    0.6661   22.3863 C   0  0  0  0  0  0  0  0  0  0  0  0
   10.7482   -0.2857   21.7635 C   0  0  0  0  0  0  0  0  0  0  0  0
   12.1118   -0.0715   21.7055 C   0  0  0  0  0  0  0  0  0  0  0  0
   12.8879   -1.0581   21.2227 F   0  0  0  0  0  0  0  0  0  0  0  0
   12.7051    1.1378   22.0563 C   0  0  0  0  0  0  0  0  0  0  0  0
   11.8867    2.1219   22.5784 C   0  0  0  0  0  0  0  0  0  0  0  0
   10.5289    1.8771   22.7811 C   0  0  0  0  0  0  0  0  0  0  0  0
    9.7076    3.0089   23.3046 C   0  0  0  0  0  0  0  0  0  0  0  0
   10.1576    4.1352   23.4640 O   0  0  0  0  0  0  0  0  0  0  0  0
    6.5730    3.5867   25.9679 O   0  0  0  0  0  0  0  0  0  0  0  0
    6.6212    4.1919   27.2087 N   0  0  0  0  0  0  0  0  0  0  0  0
  1  2  1  0
  2  3  1  0
  3  4  2  0
  4  5  1  0
  5  6  1  0
  6  7  1  0
  8  7  1  1
  8  9  1  0
  9 10  2  0
  9 11  1  0
 11 12  1  0
 12 13  2  0
 13 14  1  0
 14 15  2  0
 15 16  1  0
 16 17  2  0
 17 18  1  0
 18 19  2  0
 19 20  1  0
 20 21  2  0
 11 22  1  0
 22 23  1  0
 23 24  1  1
  8 25  1  0
 25 26  2  0
 26 27  1  0
 27 28  1  0
 27 29  2  0
 29 30  1  0
 30 31  2  0
 31 32  1  0
 32 33  2  0
  4 34  1  0
 34 35  1  0
 35  2  2  0
 32  6  1  0
 23  8  1  0
 31 25  1  0
 21 12  1  0
 21 16  1  0
M  END
>  <cnnaffinities>  (21) 
[6.06447, 6.17484, 6.06375, 5.98897, 6.13699, 6.17443, 6.12298]

>  <score>  (21) 
6.06447

>  <index>  (21) 
9

>  <Smiles>  (21) 
C(c1c(c(C(N2C([C@@]3(C(=O)N(c4c(nc(c5c(c(c(c(c45)[H])[H])[H])[H])[H])[H])C([C@@]3(C([H])([H])[H])[H])([H])[H])c3c(c(F)c(c(c3C2=O)[H])[H])[H])([H])[H])([H])[H])on1)[H])([H])([H])[H]

>  <h>  (21) 
<NA>

>  <Training>  (21) 
True

>  <Success>  (21) 
True

>  <enamine_searched>  (21) 
False

>  <enamine_id>  (21) 
nan

$$$$

     RDKit          3D

 30 34  0  0  0  0  0  0  0  0999 V2000
   -9.1735   -1.1289  -23.9598 C   0  0  0  0  0  0  0  0  0  0  0  0
   -8.4178   -1.5765  -22.8117 N   0  0  0  0  0  0  0  0  0  0  0  0
   -8.2118   -0.7643  -21.7269 C   0  0  0  0  0  0  0  0  0  0  0  0
   -8.6971    0.3208  -21.5061 O   0  0  0  0  0  0  0  0  0  0  0  0
   -7.3003   -1.4355  -20.8937 N   0  0  0  0  0  0  0  0  0  0  0  0
   -6.5733   -0.7952  -19.8526 C   0  0  0  0  0  0  0  0  0  0  0  0
   -6.9679   -0.9803  -18.5576 C   0  0  0  0  0  0  0  0  0  0  0  0
   -6.3621   -0.4114  -17.4842 N   0  0  0  0  0  0  0  0  0  0  0  0
   -5.3274    0.3608  -17.7158 C   0  0  0  0  0  0  0  0  0  0  0  0
   -4.8061    0.6296  -19.0155 C   0  0  0  0  0  0  0  0  0  0  0  0
   -3.6790    1.4703  -19.2144 C   0  0  0  0  0  0  0  0  0  0  0  0
   -3.2036    1.6983  -20.4762 C   0  0  0  0  0  0  0  0  0  0  0  0
   -3.8271    1.0978  -21.5934 C   0  0  0  0  0  0  0  0  0  0  0  0
   -4.9174    0.2814  -21.4292 C   0  0  0  0  0  0  0  0  0  0  0  0
   -5.4390    0.0342  -20.1280 C   0  0  0  0  0  0  0  0  0  0  0  0
   -6.9828   -2.6985  -21.3825 C   0  0  0  0  0  0  0  0  0  0  0  0
   -6.2697   -3.5031  -20.8342 O   0  0  0  0  0  0  0  0  0  0  0  0
   -7.7152   -2.8272  -22.7032 C   0  0  0  0  0  0  0  0  0  0  0  0
   -6.7925   -3.2950  -23.8430 C   0  0  0  0  0  0  0  0  0  0  0  0
   -7.3510   -4.6551  -23.6897 N   0  0  0  0  0  0  0  0  0  0  0  0
   -7.3806   -5.6656  -25.0362 S   0  0  0  0  0  0  0  0  0  0  0  0
   -6.4721   -6.7683  -24.7967 O   0  0  0  0  0  0  0  0  0  0  0  0
   -7.2043   -4.7941  -26.1921 O   0  0  0  0  0  0  0  0  0  0  0  0
   -9.0124   -6.3869  -25.1256 C   0  0  0  0  0  0  0  0  0  0  0  0
  -10.1345   -5.3941  -25.2629 C   0  0  0  0  0  0  0  0  0  0  0  0
  -11.3867   -6.1138  -25.8076 C   0  0  0  0  0  0  0  0  0  0  0  0
  -11.0972   -5.8900  -25.9951 C   0  0  0  0  0  0  0  0  0  0  0  0
   -8.9175   -7.3651  -26.0472 C   0  0  0  0  0  0  0  0  0  0  0  0
   -8.9959   -7.6547  -25.9161 C   0  0  0  0  0  0  0  0  0  0  0  0
   -8.4620   -4.1744  -22.8335 C   0  0  0  0  0  0  0  0  0  0  0  0
  1  2  1  0
  2  3  1  0
  3  4  2  0
  3  5  1  0
  5  6  1  0
  6  7  2  0
  7  8  1  0
  8  9  2  0
  9 10  1  0
 10 11  2  0
 11 12  1  0
 12 13  2  0
 13 14  1  0
 14 15  2  0
  5 16  1  0
 16 17  2  0
 16 18  1  0
 18 19  1  0
 19 20  1  0
 20 21  1  0
 21 22  2  0
 21 23  2  0
 21 24  1  0
 24 25  2  0
 25 26  1  0
 26 27  2  0
 27 28  1  0
 28 29  2  0
 20 30  1  0
 18  2  1  0
 29 24  1  0
 15  6  1  0
 30 18  1  0
 15 10  1  0
M  END
>  <cnnaffinities>  (22) 
[5.4534]

>  <score>  (22) 
5.4534

>  <index>  (22) 
0

>  <Smiles>  (22) 
C(N1C(=O)N(c2c(nc(c3c(c(c(c(c23)[H])[H])[H])[H])[H])[H])C(=O)C21C(N(S(=O)(=O)c1c(c(c(c(c1[H])[H])[H])[H])[H])C2([H])[H])([H])[H])([H])([H])[H]

>  <h>  (22) 
<NA>

>  <Training>  (22) 
True

>  <Success>  (22) 
True

>  <enamine_searched>  (22) 
False

>  <enamine_id>  (22) 
nan

$$$$

     RDKit          3D

 43 49  0  0  0  0  0  0  0  0999 V2000
  -12.1996    0.9990  -24.2700 O   0  0  0  0  0  0  0  0  0  0  0  0
  -11.5147    0.0312  -23.9527 C   0  0  0  0  0  0  0  0  0  0  0  0
  -12.0364   -1.0255  -23.0506 C   0  0  0  0  0  0  0  0  0  0  0  0
  -13.3922   -0.9353  -22.7577 C   0  0  0  0  0  0  0  0  0  0  0  0
  -13.9880   -1.8703  -21.9513 C   0  0  0  0  0  0  0  0  0  0  0  0
  -13.1900   -2.8928  -21.4444 C   0  0  0  0  0  0  0  0  0  0  0  0
  -13.9559   -4.0617  -20.4190 Cl  0  0  0  0  0  0  0  0  0  0  0  0
  -11.8223   -2.9627  -21.6862 C   0  0  0  0  0  0  0  0  0  0  0  0
  -11.1945   -1.9992  -22.4823 C   0  0  0  0  0  0  0  0  0  0  0  0
   -9.6777   -1.8885  -22.6613 C   0  0  1  0  0  0  0  0  0  0  0  0
   -9.4411   -1.3014  -24.0813 C   0  0  0  0  0  0  0  0  0  0  0  0
  -10.2222   -0.1094  -24.3532 N   0  0  0  0  0  0  0  0  0  0  0  0
   -9.5562    1.1197  -24.7395 C   0  0  0  0  0  0  0  0  0  0  0  0
   -9.2582    1.9577  -23.4845 C   0  0  0  0  0  0  0  0  0  0  0  0
   -8.9899    3.3713  -23.8143 N   0  0  0  0  0  0  0  0  0  0  0  0
   -8.1163    4.0951  -22.8339 C   0  0  0  0  0  0  0  0  0  0  0  0
   -7.7934    5.4712  -23.3918 C   0  0  0  0  0  0  0  0  0  0  0  0
   -8.9605    6.2382  -23.6318 O   0  0  0  0  0  0  0  0  0  0  0  0
   -9.8372    5.5709  -24.5227 C   0  0  0  0  0  0  0  0  0  0  0  0
  -10.2419    4.2048  -23.9847 C   0  0  0  0  0  0  0  0  0  0  0  0
   -9.0606   -0.9134  -21.6089 C   0  0  0  0  0  0  0  0  0  0  0  0
   -9.5899    0.0611  -21.1117 O   0  0  0  0  0  0  0  0  0  0  0  0
   -7.7687   -1.3090  -21.3423 N   0  0  0  0  0  0  0  0  0  0  0  0
   -6.9824   -0.7773  -20.2856 C   0  0  0  0  0  0  0  0  0  0  0  0
   -7.3028   -1.0530  -18.9793 C   0  0  0  0  0  0  0  0  0  0  0  0
   -6.5759   -0.6533  -17.9036 N   0  0  0  0  0  0  0  0  0  0  0  0
   -5.4934    0.0500  -18.1389 C   0  0  0  0  0  0  0  0  0  0  0  0
   -5.0379    0.4066  -19.4392 C   0  0  0  0  0  0  0  0  0  0  0  0
   -3.8708    1.1932  -19.6332 C   0  0  0  0  0  0  0  0  0  0  0  0
   -3.4399    1.4863  -20.8982 C   0  0  0  0  0  0  0  0  0  0  0  0
   -4.1409    0.9929  -22.0195 C   0  0  0  0  0  0  0  0  0  0  0  0
   -5.2783    0.2385  -21.8550 C   0  0  0  0  0  0  0  0  0  0  0  0
   -5.7755   -0.0512  -20.5566 C   0  0  0  0  0  0  0  0  0  0  0  0
   -7.4103   -2.5557  -21.9754 C   0  0  0  0  0  0  0  0  0  0  0  0
   -8.7634   -3.1423  -22.4208 C   0  0  2  0  0  0  0  0  0  0  0  0
   -8.5119   -4.1506  -23.5592 C   0  0  0  0  0  0  0  0  0  0  0  0
   -7.4959   -5.1103  -23.1557 N   0  0  0  0  0  0  0  0  0  0  0  0
   -6.2759   -5.2740  -23.7422 C   0  0  0  0  0  0  0  0  0  0  0  0
   -5.8779   -4.4325  -24.7092 N   0  0  0  0  0  0  0  0  0  0  0  0
   -4.6954   -4.7046  -25.2697 C   0  0  0  0  0  0  0  0  0  0  0  0
   -3.8947   -5.7663  -24.8848 C   0  0  0  0  0  0  0  0  0  0  0  0
   -4.3880   -6.5318  -23.8320 C   0  0  0  0  0  0  0  0  0  0  0  0
   -5.5642   -6.3232  -23.2664 N   0  0  0  0  0  0  0  0  0  0  0  0
  1  2  2  0
  2  3  1  0
  3  4  2  0
  4  5  1  0
  5  6  2  0
  6  7  1  0
  6  8  1  0
  8  9  2  0
  9 10  1  0
 10 11  1  6
 11 12  1  0
 12 13  1  0
 13 14  1  0
 14 15  1  0
 15 16  1  0
 16 17  1  0
 17 18  1  0
 18 19  1  0
 19 20  1  0
 10 21  1  0
 21 22  2  0
 21 23  1  0
 23 24  1  0
 24 25  2  0
 25 26  1  0
 26 27  2  0
 27 28  1  0
 28 29  2  0
 29 30  1  0
 30 31  2  0
 31 32  1  0
 32 33  2  0
 23 34  1  0
 34 35  1  0
 35 36  1  6
 36 37  1  0
 37 38  1  0
 38 39  2  0
 39 40  1  0
 40 41  2  0
 41 42  1  0
 42 43  2  0
 12  2  1  0
 20 15  1  0
 33 24  1  0
 43 38  1  0
  9  3  1  0
 35 10  1  0
 33 28  1  0
M  CHG  1  15   1
M  END
>  <cnnaffinities>  (23) 
[7.25038, 6.33059, 7.00488]

>  <score>  (23) 
7.25038

>  <index>  (23) 
12

>  <Smiles>  (23) 
O=C1c2c(c(c(Cl)c(c2[C@@]2(C(N1C(C([N+]1(C(C(OC(C1([H])[H])([H])[H])([H])[H])([H])[H])[H])([H])[H])([H])[H])([H])[H])C(=O)N(c1c(nc(c3c(c(c(c(c13)[H])[H])[H])[H])[H])[H])C([C@@]2(C(N(c1nc(c(c(n1)[H])[H])[H])[H])([H])[H])[H])([H])[H])[H])[H])[H]

>  <h>  (23) 
<NA>

>  <Training>  (23) 
True

>  <Success>  (23) 
True

>  <enamine_searched>  (23) 
False

>  <enamine_id>  (23) 
nan

$$$$

     RDKit          3D

 41 46  0  0  0  0  0  0  0  0999 V2000
   -6.7894    3.3596  -23.3746 C   0  0  0  0  0  0  0  0  0  0  0  0
   -7.5162    2.5493  -24.3304 N   0  0  0  0  0  0  0  0  0  0  0  0
   -6.9167    1.4935  -24.9196 C   0  0  0  0  0  0  0  0  0  0  0  0
   -5.7310    1.2237  -24.7621 O   0  0  0  0  0  0  0  0  0  0  0  0
   -7.8415    0.6303  -25.7893 C   0  0  0  0  0  0  0  0  0  0  0  0
   -8.8451   -0.0424  -24.9773 N   0  0  0  0  0  0  0  0  0  0  0  0
   -8.4939   -1.3208  -24.3714 C   0  0  0  0  0  0  0  0  0  0  0  0
   -9.0862   -1.4842  -22.9372 C   0  0  2  0  0  0  0  0  0  0  0  0
   -8.3118   -0.5461  -21.9805 C   0  0  0  0  0  0  0  0  0  0  0  0
   -8.4077    0.6592  -21.8921 O   0  0  0  0  0  0  0  0  0  0  0  0
   -7.4534   -1.3087  -21.2215 N   0  0  0  0  0  0  0  0  0  0  0  0
   -6.6527   -0.7717  -20.1923 C   0  0  0  0  0  0  0  0  0  0  0  0
   -6.9379   -1.0671  -18.8815 C   0  0  0  0  0  0  0  0  0  0  0  0
   -6.2510   -0.5878  -17.8170 N   0  0  0  0  0  0  0  0  0  0  0  0
   -5.2208    0.1840  -18.0819 C   0  0  0  0  0  0  0  0  0  0  0  0
   -4.7808    0.5170  -19.3957 C   0  0  0  0  0  0  0  0  0  0  0  0
   -3.6399    1.3348  -19.6186 C   0  0  0  0  0  0  0  0  0  0  0  0
   -3.2230    1.6169  -20.8914 C   0  0  0  0  0  0  0  0  0  0  0  0
   -3.9270    1.0972  -22.0027 C   0  0  0  0  0  0  0  0  0  0  0  0
   -5.0387    0.3122  -21.8162 C   0  0  0  0  0  0  0  0  0  0  0  0
   -5.5038    0.0159  -20.5010 C   0  0  0  0  0  0  0  0  0  0  0  0
   -7.4521   -2.7118  -21.5509 C   0  0  0  0  0  0  0  0  0  0  0  0
   -8.7595   -2.8719  -22.3200 C   0  0  2  0  0  0  0  0  0  0  0  0
   -8.7482   -4.0633  -23.2618 C   0  0  0  0  0  0  0  0  0  0  0  0
  -10.0268   -4.1970  -23.9105 N   0  0  0  0  0  0  0  0  0  0  0  0
  -10.1987   -5.0843  -24.9127 C   0  0  0  0  0  0  0  0  0  0  0  0
  -11.4210   -5.1535  -25.6035 C   0  0  0  0  0  0  0  0  0  0  0  0
  -11.4660   -6.0371  -26.6551 C   0  0  0  0  0  0  0  0  0  0  0  0
  -10.4409   -6.8252  -26.9946 N   0  0  0  0  0  0  0  0  0  0  0  0
   -9.3534   -6.7207  -26.2318 C   0  0  0  0  0  0  0  0  0  0  0  0
   -8.2473   -7.6688  -26.5573 C   0  0  0  0  0  0  0  0  0  0  0  0
   -9.1569   -5.8676  -25.2220 N   0  0  0  0  0  0  0  0  0  0  0  0
  -10.5687   -1.1439  -22.9794 C   0  0  0  0  0  0  0  0  0  0  0  0
  -11.5402   -1.8005  -22.2015 C   0  0  0  0  0  0  0  0  0  0  0  0
  -12.8683   -1.4211  -22.2825 C   0  0  0  0  0  0  0  0  0  0  0  0
  -14.0614   -2.2751  -21.3345 Cl  0  0  0  0  0  0  0  0  0  0  0  0
  -13.2638   -0.3471  -23.0731 C   0  0  0  0  0  0  0  0  0  0  0  0
  -12.3080    0.3485  -23.7874 C   0  0  0  0  0  0  0  0  0  0  0  0
  -10.9853   -0.0892  -23.8050 C   0  0  0  0  0  0  0  0  0  0  0  0
  -10.0326    0.5898  -24.7472 C   0  0  0  0  0  0  0  0  0  0  0  0
  -10.3179    1.6655  -25.2727 O   0  0  0  0  0  0  0  0  0  0  0  0
  1  2  1  0
  2  3  1  0
  3  4  2  0
  3  5  1  0
  5  6  1  0
  6  7  1  0
  8  7  1  6
  8  9  1  0
  9 10  2  0
  9 11  1  0
 11 12  1  0
 12 13  2  0
 13 14  1  0
 14 15  2  0
 15 16  1  0
 16 17  2  0
 17 18  1  0
 18 19  2  0
 19 20  1  0
 20 21  2  0
 11 22  1  0
 22 23  1  0
 23 24  1  6
 24 25  1  0
 25 26  1  0
 26 27  2  0
 27 28  1  0
 28 29  2  0
 29 30  1  0
 30 31  1  0
 30 32  2  0
  8 33  1  0
 33 34  2  0
 34 35  1  0
 35 36  1  0
 35 37  2  0
 37 38  1  0
 38 39  2  0
 39 40  1  0
 40 41  2  0
 40  6  1  0
 23  8  1  0
 32 26  1  0
 39 33  1  0
 21 12  1  0
 21 16  1  0
M  END
>  <cnnaffinities>  (24) 
[6.79591, 7.03987, 6.67978]

>  <score>  (24) 
6.79591

>  <index>  (24) 
13

>  <Smiles>  (24) 
C(N(C(=O)C(N1C([C@@]2(C(=O)N(c3c(nc(c4c(c(c(c(c34)[H])[H])[H])[H])[H])[H])C([C@@]2(C(N(c2c(c(nc(C([H])([H])[H])n2)[H])[H])[H])([H])[H])[H])([H])[H])c2c(c(Cl)c(c(c2C1=O)[H])[H])[H])([H])[H])([H])[H])[H])([H])([H])[H]

>  <h>  (24) 
<NA>

>  <Training>  (24) 
True

>  <Success>  (24) 
True

>  <enamine_searched>  (24) 
False

>  <enamine_id>  (24) 
nan

$$$$

     RDKit          3D

 38 43  0  0  0  0  0  0  0  0999 V2000
    5.1825    8.4502   24.5608 C   0  0  0  0  0  0  0  0  0  0  0  0
    5.4965    7.7429   23.2408 C   0  0  1  0  0  0  0  0  0  0  0  0
    6.4473    6.5510   23.4638 C   0  0  0  0  0  0  0  0  0  0  0  0
    6.2399    5.5201   22.3841 N   0  0  0  0  0  0  0  0  0  0  0  0
    7.2918    4.4478   22.2987 C   0  0  0  0  0  0  0  0  0  0  0  0
    7.5893    3.7560   23.6372 C   0  0  0  0  0  0  0  0  0  0  0  0
    8.4864    2.6251   23.4707 N   0  0  0  0  0  0  0  0  0  0  0  0
    8.0175    1.2692   23.6749 C   0  0  0  0  0  0  0  0  0  0  0  0
    8.5087    0.3100   22.5639 C   0  0  2  0  0  0  0  0  0  0  0  0
    7.8018    0.6417   21.2302 C   0  0  0  0  0  0  0  0  0  0  0  0
    8.0144    1.5883   20.4969 O   0  0  0  0  0  0  0  0  0  0  0  0
    6.8517   -0.3216   20.9816 N   0  0  0  0  0  0  0  0  0  0  0  0
    5.8890   -0.1563   19.9548 C   0  0  0  0  0  0  0  0  0  0  0  0
    6.0624   -0.8047   18.7587 C   0  0  0  0  0  0  0  0  0  0  0  0
    5.2378   -0.6675   17.6939 N   0  0  0  0  0  0  0  0  0  0  0  0
    4.1828    0.0949   17.8433 C   0  0  0  0  0  0  0  0  0  0  0  0
    3.8329    0.7568   19.0566 C   0  0  0  0  0  0  0  0  0  0  0  0
    2.6435    1.5248   19.1878 C   0  0  0  0  0  0  0  0  0  0  0  0
    2.3270    2.1222   20.3720 C   0  0  0  0  0  0  0  0  0  0  0  0
    3.1982    2.0091   21.4768 C   0  0  0  0  0  0  0  0  0  0  0  0
    4.3683    1.2912   21.3731 C   0  0  0  0  0  0  0  0  0  0  0  0
    4.7137    0.6377   20.1540 C   0  0  0  0  0  0  0  0  0  0  0  0
    6.7506   -1.3382   22.0060 C   0  0  0  0  0  0  0  0  0  0  0  0
    8.0444   -1.1624   22.8273 C   0  0  2  0  0  0  0  0  0  0  0  0
    7.8586   -1.5888   24.2889 C   0  0  0  0  0  0  0  0  0  0  0  0
   10.0040    0.5070   22.4057 C   0  0  0  0  0  0  0  0  0  0  0  0
   10.7779   -0.4629   21.7603 C   0  0  0  0  0  0  0  0  0  0  0  0
   12.1403   -0.2764   21.6217 C   0  0  0  0  0  0  0  0  0  0  0  0
   13.0636   -1.5063   20.8075 Cl  0  0  0  0  0  0  0  0  0  0  0  0
   12.7639    0.8950   22.0489 C   0  0  0  0  0  0  0  0  0  0  0  0
   11.9924    1.8892   22.6156 C   0  0  0  0  0  0  0  0  0  0  0  0
   10.6191    1.7130   22.7733 C   0  0  0  0  0  0  0  0  0  0  0  0
    9.8103    2.8797   23.2651 C   0  0  0  0  0  0  0  0  0  0  0  0
   10.3032    3.9902   23.4289 O   0  0  0  0  0  0  0  0  0  0  0  0
    4.8202    4.9864   22.3997 C   0  0  0  0  0  0  0  0  0  0  0  0
    3.8450    6.0548   22.9135 C   0  0  2  0  0  0  0  0  0  0  0  0
    2.4557    5.8741   22.3247 C   0  0  0  0  0  0  0  0  0  0  0  0
    4.3123    7.3454   22.5505 O   0  0  0  0  0  0  0  0  0  0  0  0
  2  1  1  1
  2  3  1  0
  3  4  1  0
  4  5  1  0
  5  6  1  0
  6  7  1  0
  7  8  1  0
  9  8  1  1
  9 10  1  0
 10 11  2  0
 10 12  1  0
 12 13  1  0
 13 14  2  0
 14 15  1  0
 15 16  2  0
 16 17  1  0
 17 18  2  0
 18 19  1  0
 19 20  2  0
 20 21  1  0
 21 22  2  0
 12 23  1  0
 23 24  1  0
 24 25  1  1
  9 26  1  0
 26 27  2  0
 27 28  1  0
 28 29  1  0
 28 30  2  0
 30 31  1  0
 31 32  2  0
 32 33  1  0
 33 34  2  0
  4 35  1  0
 35 36  1  0
 36 37  1  6
 36 38  1  0
 38  2  1  0
 33  7  1  0
 24  9  1  0
 32 26  1  0
 22 13  1  0
 22 17  1  0
M  CHG  1   4   1
M  END
>  <cnnaffinities>  (25) 
[6.5354]

>  <score>  (25) 
6.5354

>  <index>  (25) 
10

>  <Smiles>  (25) 
C([C@]1(C([N+](C(C(N2C([C@@]3(C(=O)N(c4c(nc(c5c(c(c(c(c45)[H])[H])[H])[H])[H])[H])C([C@@]3(C([H])([H])[H])[H])([H])[H])c3c(c(Cl)c(c(c3C2=O)[H])[H])[H])([H])[H])([H])[H])([H])[H])(C([C@](C([H])([H])[H])(O1)[H])([H])[H])[H])([H])[H])[H])([H])([H])[H]

>  <h>  (25) 
<NA>

>  <Training>  (25) 
True

>  <Success>  (25) 
True

>  <enamine_searched>  (25) 
False

>  <enamine_id>  (25) 
nan

$$$$

     RDKit          3D

 40 45  0  0  0  0  0  0  0  0999 V2000
   -8.1000   -3.6209  -24.0472 C   0  0  0  0  0  0  0  0  0  0  0  0
   -8.4012   -2.7765  -22.8046 C   0  0  1  0  0  0  0  0  0  0  0  0
   -7.1671   -2.5966  -21.8932 C   0  0  0  0  0  0  0  0  0  0  0  0
   -7.4354   -1.3513  -21.1972 N   0  0  0  0  0  0  0  0  0  0  0  0
   -6.6107   -0.8020  -20.1747 C   0  0  0  0  0  0  0  0  0  0  0  0
   -6.9070   -1.0434  -18.8597 C   0  0  0  0  0  0  0  0  0  0  0  0
   -6.2033   -0.5543  -17.8052 N   0  0  0  0  0  0  0  0  0  0  0  0
   -5.1692    0.2079  -18.0748 C   0  0  0  0  0  0  0  0  0  0  0  0
   -4.7353    0.5360  -19.3921 C   0  0  0  0  0  0  0  0  0  0  0  0
   -3.6099    1.3717  -19.6363 C   0  0  0  0  0  0  0  0  0  0  0  0
   -3.2192    1.6615  -20.9154 C   0  0  0  0  0  0  0  0  0  0  0  0
   -3.9290    1.1215  -22.0101 C   0  0  0  0  0  0  0  0  0  0  0  0
   -5.0189    0.3099  -21.7995 C   0  0  0  0  0  0  0  0  0  0  0  0
   -5.4680    0.0061  -20.4839 C   0  0  0  0  0  0  0  0  0  0  0  0
   -8.4385   -0.5991  -21.7692 C   0  0  0  0  0  0  0  0  0  0  0  0
   -8.8283    0.4591  -21.3215 O   0  0  0  0  0  0  0  0  0  0  0  0
   -8.9388   -1.3302  -23.0443 C   0  0  1  0  0  0  0  0  0  0  0  0
   -8.2899   -0.6975  -24.3080 C   0  0  0  0  0  0  0  0  0  0  0  0
   -8.7208    0.6688  -24.5156 N   0  0  0  0  0  0  0  0  0  0  0  0
   -7.7450    1.7171  -24.7877 C   0  0  0  0  0  0  0  0  0  0  0  0
   -7.4365    2.5437  -23.5351 C   0  0  0  0  0  0  0  0  0  0  0  0
   -6.2814    3.4936  -23.7082 N   0  0  0  0  0  0  0  0  0  0  0  0
   -6.5495    4.5625  -24.7412 C   0  0  0  0  0  0  0  0  0  0  0  0
   -5.7355    5.8243  -24.4887 C   0  0  0  0  0  0  0  0  0  0  0  0
   -6.0324    6.4039  -23.1666 N   0  0  0  0  0  0  0  0  0  0  0  0
   -5.0162    7.6283  -22.6807 S   0  0  0  0  0  0  0  0  0  0  0  0
   -4.6520    8.3627  -23.8782 O   0  0  0  0  0  0  0  0  0  0  0  0
   -5.6267    8.2765  -21.5374 O   0  0  0  0  0  0  0  0  0  0  0  0
   -3.5393    6.8110  -22.0926 C   0  0  0  0  0  0  0  0  0  0  0  0
   -6.4681    5.4514  -22.1353 C   0  0  0  0  0  0  0  0  0  0  0  0
   -5.8304    4.0929  -22.3919 C   0  0  0  0  0  0  0  0  0  0  0  0
  -10.0463    0.9898  -24.4743 C   0  0  0  0  0  0  0  0  0  0  0  0
  -10.4796    2.0601  -24.8835 O   0  0  0  0  0  0  0  0  0  0  0  0
  -10.9588   -0.0480  -23.8654 C   0  0  0  0  0  0  0  0  0  0  0  0
  -12.3364    0.1623  -23.9361 C   0  0  0  0  0  0  0  0  0  0  0  0
  -13.2195   -0.7066  -23.3285 C   0  0  0  0  0  0  0  0  0  0  0  0
  -12.7039   -1.7765  -22.6002 C   0  0  0  0  0  0  0  0  0  0  0  0
  -13.8068   -2.8342  -21.7682 Cl  0  0  0  0  0  0  0  0  0  0  0  0
  -11.3417   -2.0004  -22.5069 C   0  0  0  0  0  0  0  0  0  0  0  0
  -10.4433   -1.1589  -23.1757 C   0  0  0  0  0  0  0  0  0  0  0  0
  2  1  1  6
  2  3  1  0
  3  4  1  0
  4  5  1  0
  5  6  2  0
  6  7  1  0
  7  8  2  0
  8  9  1  0
  9 10  2  0
 10 11  1  0
 11 12  2  0
 12 13  1  0
 13 14  2  0
  4 15  1  0
 15 16  2  0
 15 17  1  0
 17 18  1  6
 18 19  1  0
 19 20  1  0
 20 21  1  0
 21 22  1  0
 22 23  1  0
 23 24  1  0
 24 25  1  0
 25 26  1  0
 26 27  2  0
 26 28  2  0
 26 29  1  0
 25 30  1  0
 30 31  1  0
 19 32  1  0
 32 33  2  0
 32 34  1  0
 34 35  2  0
 35 36  1  0
 36 37  2  0
 37 38  1  0
 37 39  1  0
 39 40  2  0
 17  2  1  0
 31 22  1  0
 40 34  1  0
 14  5  1  0
 40 17  1  0
 14  9  1  0
M  CHG  1  22   1
M  END
>  <cnnaffinities>  (26) 
[7.00999, 6.478]

>  <score>  (26) 
7.00999

>  <index>  (26) 
14

>  <Smiles>  (26) 
C([C@]1(C(N(c2c(nc(c3c(c(c(c(c23)[H])[H])[H])[H])[H])[H])C(=O)[C@]21C(N(C(C([N+]1(C(C(N(S(=O)(=O)C([H])([H])[H])C(C1([H])[H])([H])[H])([H])[H])([H])[H])[H])([H])[H])([H])[H])C(=O)c1c(c(c(Cl)c(c21)[H])[H])[H])([H])[H])([H])[H])[H])([H])([H])[H]

>  <h>  (26) 
<NA>

>  <Training>  (26) 
True

>  <Success>  (26) 
True

>  <enamine_searched>  (26) 
False

>  <enamine_id>  (26) 
nan

$$$$

     RDKit          3D

 28 31  0  0  0  0  0  0  0  0999 V2000
    9.6036    3.5897   23.8726 C   0  0  0  0  0  0  0  0  0  0  0  0
    8.9760    2.3322   23.8751 O   0  0  0  0  0  0  0  0  0  0  0  0
    9.6911    1.2659   23.4272 C   0  0  0  0  0  0  0  0  0  0  0  0
   11.0051    1.3715   22.9726 C   0  0  0  0  0  0  0  0  0  0  0  0
   11.6557    0.2450   22.4802 C   0  0  0  0  0  0  0  0  0  0  0  0
   10.9968   -0.9734   22.4457 C   0  0  0  0  0  0  0  0  0  0  0  0
    9.6873   -1.0671   22.9158 C   0  0  0  0  0  0  0  0  0  0  0  0
    9.0151    0.0308   23.4315 C   0  0  0  0  0  0  0  0  0  0  0  0
    7.5823   -0.0486   23.9638 C   0  0  2  0  0  0  0  0  0  0  0  0
    7.4982    0.0948   25.5012 C   0  0  0  0  0  0  0  0  0  0  0  0
    7.5946   -1.2021   26.3127 C   0  0  2  0  0  0  0  0  0  0  0  0
    9.0048   -1.7982   26.3806 C   0  0  0  0  0  0  0  0  0  0  0  0
    6.5469   -2.1746   25.7645 C   0  0  0  0  0  0  0  0  0  0  0  0
    6.7422   -2.4391   24.2779 C   0  0  0  0  0  0  0  0  0  0  0  0
    6.8312   -1.2100   23.4816 N   0  0  0  0  0  0  0  0  0  0  0  0
    6.3993   -1.3330   22.1756 C   0  0  0  0  0  0  0  0  0  0  0  0
    5.6931   -2.2674   21.8387 O   0  0  0  0  0  0  0  0  0  0  0  0
    6.8668   -0.3338   21.0975 C   0  0  0  0  0  0  0  0  0  0  0  0
    5.8665   -0.1769   19.9821 C   0  0  0  0  0  0  0  0  0  0  0  0
    6.0393   -0.8061   18.7763 C   0  0  0  0  0  0  0  0  0  0  0  0
    5.2334   -0.6661   17.6903 N   0  0  0  0  0  0  0  0  0  0  0  0
    4.1746    0.0930   17.8309 C   0  0  0  0  0  0  0  0  0  0  0  0
    3.8214    0.7471   19.0431 C   0  0  0  0  0  0  0  0  0  0  0  0
    2.6409    1.5209   19.1682 C   0  0  0  0  0  0  0  0  0  0  0  0
    2.3276    2.1330   20.3496 C   0  0  0  0  0  0  0  0  0  0  0  0
    3.1991    2.0194   21.4542 C   0  0  0  0  0  0  0  0  0  0  0  0
    4.3542    1.2847   21.3576 C   0  0  0  0  0  0  0  0  0  0  0  0
    4.6932    0.6171   20.1497 C   0  0  0  0  0  0  0  0  0  0  0  0
  1  2  1  0
  2  3  1  0
  3  4  2  0
  4  5  1  0
  5  6  2  0
  6  7  1  0
  7  8  2  0
  9  8  1  1
  9 10  1  0
 10 11  1  0
 11 12  1  6
 11 13  1  0
 13 14  1  0
 14 15  1  0
 15 16  1  0
 16 17  2  0
 16 18  1  0
 18 19  1  0
 19 20  2  0
 20 21  1  0
 21 22  2  0
 22 23  1  0
 23 24  2  0
 24 25  1  0
 25 26  2  0
 26 27  1  0
 27 28  2  0
  8  3  1  0
 15  9  1  0
 28 19  1  0
 28 23  1  0
M  END
>  <cnnaffinities>  (27) 
[5.79148, 5.91045, 5.75609, 5.73146]

>  <score>  (27) 
5.79148

>  <index>  (27) 
11

>  <Smiles>  (27) 
C(Oc1c(c(c(c(c1[C@@]1(C([C@](C([H])([H])[H])(C(C(N1C(=O)C(c1c(nc(c2c(c(c(c(c12)[H])[H])[H])[H])[H])[H])([H])[H])([H])[H])([H])[H])[H])([H])[H])[H])[H])[H])[H])[H])([H])([H])[H]

>  <h>  (27) 
<NA>

>  <Training>  (27) 
True

>  <Success>  (27) 
True

>  <enamine_searched>  (27) 
False

>  <enamine_id>  (27) 
nan

$$$$

     RDKit          3D

 38 43  0  0  0  0  0  0  0  0999 V2000
   -7.3854    3.3975  -21.8201 C   0  0  0  0  0  0  0  0  0  0  0  0
   -8.2493    2.9323  -22.8887 N   0  0  0  0  0  0  0  0  0  0  0  0
   -7.6758    2.2380  -23.8969 C   0  0  0  0  0  0  0  0  0  0  0  0
   -6.4591    2.1247  -24.0009 O   0  0  0  0  0  0  0  0  0  0  0  0
   -8.6185    1.6110  -24.9263 C   0  0  0  0  0  0  0  0  0  0  0  0
   -9.3417    0.4558  -24.4256 N   0  0  0  0  0  0  0  0  0  0  0  0
   -8.6293   -0.7986  -24.2557 C   0  0  0  0  0  0  0  0  0  0  0  0
   -9.0312   -1.5117  -22.9353 C   0  0  2  0  0  0  0  0  0  0  0  0
   -8.4890   -0.7171  -21.7162 C   0  0  0  0  0  0  0  0  0  0  0  0
   -8.9293    0.3168  -21.2571 O   0  0  0  0  0  0  0  0  0  0  0  0
   -7.3957   -1.3823  -21.2071 N   0  0  0  0  0  0  0  0  0  0  0  0
   -6.6027   -0.8106  -20.1749 C   0  0  0  0  0  0  0  0  0  0  0  0
   -6.9102   -1.0441  -18.8590 C   0  0  0  0  0  0  0  0  0  0  0  0
   -6.2123   -0.5501  -17.8050 N   0  0  0  0  0  0  0  0  0  0  0  0
   -5.1723    0.2060  -18.0734 C   0  0  0  0  0  0  0  0  0  0  0  0
   -4.7327    0.5299  -19.3898 C   0  0  0  0  0  0  0  0  0  0  0  0
   -3.6053    1.3637  -19.6361 C   0  0  0  0  0  0  0  0  0  0  0  0
   -3.2188    1.6529  -20.9164 C   0  0  0  0  0  0  0  0  0  0  0  0
   -3.9389    1.1239  -22.0109 C   0  0  0  0  0  0  0  0  0  0  0  0
   -5.0324    0.3181  -21.7989 C   0  0  0  0  0  0  0  0  0  0  0  0
   -5.4646    0.0030  -20.4815 C   0  0  0  0  0  0  0  0  0  0  0  0
   -7.0572   -2.6038  -21.9083 C   0  0  0  0  0  0  0  0  0  0  0  0
   -8.3040   -2.8830  -22.7700 C   0  0  2  0  0  0  0  0  0  0  0  0
   -7.9497   -3.6527  -24.0609 C   0  0  0  0  0  0  0  0  0  0  0  0
   -7.4474   -4.9925  -23.7864 N   0  0  0  0  0  0  0  0  0  0  0  0
   -8.1869   -6.0935  -23.5234 C   0  0  0  0  0  0  0  0  0  0  0  0
   -7.3088   -7.1125  -23.2324 C   0  0  0  0  0  0  0  0  0  0  0  0
   -6.0363   -6.5114  -23.3526 C   0  0  0  0  0  0  0  0  0  0  0  0
   -6.1326   -5.2282  -23.6824 N   0  0  0  0  0  0  0  0  0  0  0  0
  -10.5514   -1.5511  -22.8633 C   0  0  0  0  0  0  0  0  0  0  0  0
  -11.1948   -2.4197  -21.9714 C   0  0  0  0  0  0  0  0  0  0  0  0
  -12.5751   -2.4302  -21.8861 C   0  0  0  0  0  0  0  0  0  0  0  0
  -13.3666   -3.4975  -20.7630 Cl  0  0  0  0  0  0  0  0  0  0  0  0
  -13.3580   -1.5761  -22.6621 C   0  0  0  0  0  0  0  0  0  0  0  0
  -12.7302   -0.6616  -23.4842 C   0  0  0  0  0  0  0  0  0  0  0  0
  -11.3364   -0.6163  -23.5544 C   0  0  0  0  0  0  0  0  0  0  0  0
  -10.7000    0.5327  -24.2820 C   0  0  0  0  0  0  0  0  0  0  0  0
  -11.3521    1.4883  -24.6749 O   0  0  0  0  0  0  0  0  0  0  0  0
  1  2  1  0
  2  3  1  0
  3  4  2  0
  3  5  1  0
  5  6  1  0
  6  7  1  0
  8  7  1  6
  8  9  1  0
  9 10  2  0
  9 11  1  0
 11 12  1  0
 12 13  2  0
 13 14  1  0
 14 15  2  0
 15 16  1  0
 16 17  2  0
 17 18  1  0
 18 19  2  0
 19 20  1  0
 20 21  2  0
 11 22  1  0
 22 23  1  0
 23 24  1  6
 24 25  1  0
 25 26  1  0
 26 27  2  0
 27 28  1  0
 28 29  2  0
  8 30  1  0
 30 31  2  0
 31 32  1  0
 32 33  1  0
 32 34  2  0
 34 35  1  0
 35 36  2  0
 36 37  1  0
 37 38  2  0
 37  6  1  0
 23  8  1  0
 29 25  1  0
 36 30  1  0
 21 12  1  0
 21 16  1  0
M  END
>  <cnnaffinities>  (28) 
[6.85968, 6.93482, 6.98162, 6.90806, 6.88936, 6.79147]

>  <score>  (28) 
6.85968

>  <index>  (28) 
15

>  <Smiles>  (28) 
C(N(C(=O)C(N1C([C@@]2(C(=O)N(c3c(nc(c4c(c(c(c(c34)[H])[H])[H])[H])[H])[H])C([C@@]2(C(n2c(c(c(n2)[H])[H])[H])([H])[H])[H])([H])[H])c2c(c(Cl)c(c(c2C1=O)[H])[H])[H])([H])[H])([H])[H])[H])([H])([H])[H]

>  <h>  (28) 
<NA>

>  <Training>  (28) 
True

>  <Success>  (28) 
True

>  <enamine_searched>  (28) 
False

>  <enamine_id>  (28) 
nan

$$$$

     RDKit          3D

 38 43  0  0  0  0  0  0  0  0999 V2000
   -7.3758    3.4047  -21.8239 C   0  0  0  0  0  0  0  0  0  0  0  0
   -8.2378    2.9403  -22.8941 N   0  0  0  0  0  0  0  0  0  0  0  0
   -7.6633    2.2440  -23.9008 C   0  0  0  0  0  0  0  0  0  0  0  0
   -6.4464    2.1299  -24.0036 O   0  0  0  0  0  0  0  0  0  0  0  0
   -8.6095    1.6186  -24.9294 C   0  0  0  0  0  0  0  0  0  0  0  0
   -9.3359    0.4640  -24.4318 N   0  0  0  0  0  0  0  0  0  0  0  0
   -8.6294   -0.7931  -24.2598 C   0  0  0  0  0  0  0  0  0  0  0  0
   -9.0338   -1.5014  -22.9368 C   0  0  2  0  0  0  0  0  0  0  0  0
   -8.4868   -0.7087  -21.7190 C   0  0  0  0  0  0  0  0  0  0  0  0
   -8.9174    0.3303  -21.2641 O   0  0  0  0  0  0  0  0  0  0  0  0
   -7.4007   -1.3830  -21.2048 N   0  0  0  0  0  0  0  0  0  0  0  0
   -6.6042   -0.8103  -20.1752 C   0  0  0  0  0  0  0  0  0  0  0  0
   -6.9102   -1.0434  -18.8594 C   0  0  0  0  0  0  0  0  0  0  0  0
   -6.2111   -0.5503  -17.8054 N   0  0  0  0  0  0  0  0  0  0  0  0
   -5.1716    0.2061  -18.0737 C   0  0  0  0  0  0  0  0  0  0  0  0
   -4.7326    0.5303  -19.3897 C   0  0  0  0  0  0  0  0  0  0  0  0
   -3.6052    1.3638  -19.6363 C   0  0  0  0  0  0  0  0  0  0  0  0
   -3.2182    1.6534  -20.9164 C   0  0  0  0  0  0  0  0  0  0  0  0
   -3.9382    1.1237  -22.0109 C   0  0  0  0  0  0  0  0  0  0  0  0
   -5.0319    0.3180  -21.7985 C   0  0  0  0  0  0  0  0  0  0  0  0
   -5.4656    0.0034  -20.4819 C   0  0  0  0  0  0  0  0  0  0  0  0
   -7.0688   -2.6050  -21.9081 C   0  0  0  0  0  0  0  0  0  0  0  0
   -8.3147   -2.8752  -22.7753 C   0  0  2  0  0  0  0  0  0  0  0  0
   -7.9555   -3.6329  -24.0711 C   0  0  0  0  0  0  0  0  0  0  0  0
   -7.4388   -4.9615  -23.7818 N   0  0  0  0  0  0  0  0  0  0  0  0
   -8.2114   -6.0039  -23.5332 N   0  0  0  0  0  0  0  0  0  0  0  0
   -7.3109   -6.9399  -23.2795 C   0  0  0  0  0  0  0  0  0  0  0  0
   -6.0451   -6.4797  -23.3705 N   0  0  0  0  0  0  0  0  0  0  0  0
   -6.1509   -5.2198  -23.6930 N   0  0  0  0  0  0  0  0  0  0  0  0
  -10.5519   -1.5342  -22.8650 C   0  0  0  0  0  0  0  0  0  0  0  0
  -11.1952   -2.3978  -21.9696 C   0  0  0  0  0  0  0  0  0  0  0  0
  -12.5749   -2.4048  -21.8822 C   0  0  0  0  0  0  0  0  0  0  0  0
  -13.3664   -3.4698  -20.7577 Cl  0  0  0  0  0  0  0  0  0  0  0  0
  -13.3569   -1.5496  -22.6576 C   0  0  0  0  0  0  0  0  0  0  0  0
  -12.7269   -0.6400  -23.4832 C   0  0  0  0  0  0  0  0  0  0  0  0
  -11.3337   -0.5987  -23.5582 C   0  0  0  0  0  0  0  0  0  0  0  0
  -10.6939    0.5451  -24.2898 C   0  0  0  0  0  0  0  0  0  0  0  0
  -11.3410    1.5024  -24.6883 O   0  0  0  0  0  0  0  0  0  0  0  0
  1  2  1  0
  2  3  1  0
  3  4  2  0
  3  5  1  0
  5  6  1  0
  6  7  1  0
  8  7  1  6
  8  9  1  0
  9 10  2  0
  9 11  1  0
 11 12  1  0
 12 13  2  0
 13 14  1  0
 14 15  2  0
 15 16  1  0
 16 17  2  0
 17 18  1  0
 18 19  2  0
 19 20  1  0
 20 21  2  0
 11 22  1  0
 22 23  1  0
 23 24  1  6
 24 25  1  0
 25 26  1  0
 26 27  2  0
 27 28  1  0
 28 29  2  0
  8 30  1  0
 30 31  2  0
 31 32  1  0
 32 33  1  0
 32 34  2  0
 34 35  1  0
 35 36  2  0
 36 37  1  0
 37 38  2  0
 37  6  1  0
 23  8  1  0
 29 25  1  0
 36 30  1  0
 21 12  1  0
 21 16  1  0
M  END
>  <cnnaffinities>  (29) 
[6.75978, 6.73877, 6.85801, 6.83801, 6.68633]

>  <score>  (29) 
6.75978

>  <index>  (29) 
16

>  <Smiles>  (29) 
C(N(C(=O)C(N1C([C@@]2(C(=O)N(c3c(nc(c4c(c(c(c(c34)[H])[H])[H])[H])[H])[H])C([C@@]2(C(n2nc(nn2)[H])([H])[H])[H])([H])[H])c2c(c(Cl)c(c(c2C1=O)[H])[H])[H])([H])[H])([H])[H])[H])([H])([H])[H]

>  <h>  (29) 
<NA>

>  <Training>  (29) 
True

>  <Success>  (29) 
True

>  <enamine_searched>  (29) 
False

>  <enamine_id>  (29) 
nan

$$$$

     RDKit          3D

 24 27  0  0  0  0  0  0  0  0999 V2000
    5.9768   -0.5359   23.5567 O   0  0  0  0  0  0  0  0  0  0  0  0
    6.1325   -1.1486   22.5064 C   0  0  0  0  0  0  0  0  0  0  0  0
    6.7402   -0.4812   21.2472 C   0  0  0  0  0  0  0  0  0  0  0  0
    5.8192   -0.2568   20.0626 C   0  0  0  0  0  0  0  0  0  0  0  0
    6.1180   -0.7505   18.8177 C   0  0  0  0  0  0  0  0  0  0  0  0
    5.3767   -0.5574   17.6963 N   0  0  0  0  0  0  0  0  0  0  0  0
    4.2890    0.1663   17.8184 C   0  0  0  0  0  0  0  0  0  0  0  0
    3.8705    0.7755   19.0335 C   0  0  0  0  0  0  0  0  0  0  0  0
    2.7200    1.6085   19.1250 C   0  0  0  0  0  0  0  0  0  0  0  0
    2.3987    2.2205   20.3074 C   0  0  0  0  0  0  0  0  0  0  0  0
    3.2170    2.0521   21.4455 C   0  0  0  0  0  0  0  0  0  0  0  0
    4.3334    1.2579   21.3840 C   0  0  0  0  0  0  0  0  0  0  0  0
    4.6696    0.5783   20.1829 C   0  0  0  0  0  0  0  0  0  0  0  0
    5.7912   -2.4668   22.3946 N   0  0  0  0  0  0  0  0  0  0  0  0
    6.2654   -3.3019   21.3043 C   0  0  0  0  0  0  0  0  0  0  0  0
    6.0974   -4.7437   21.8023 C   0  0  2  0  0  0  0  0  0  0  0  0
    5.7823   -5.7025   20.6686 C   0  0  0  0  0  0  0  0  0  0  0  0
    4.9158   -5.1275   19.7470 F   0  0  0  0  0  0  0  0  0  0  0  0
    5.1889   -4.6875   23.0642 C   0  0  0  0  0  0  0  0  0  0  0  0
    3.6811   -4.9169   22.8645 C   0  0  0  0  0  0  0  0  0  0  0  0
    3.4629   -6.4382   22.8461 C   0  0  0  0  0  0  0  0  0  0  0  0
    4.6172   -7.0119   23.6975 C   0  0  0  0  0  0  0  0  0  0  0  0
    5.5204   -5.8155   24.0589 C   0  0  0  0  0  0  0  0  0  0  0  0
    5.5077   -3.2717   23.5890 C   0  0  0  0  0  0  0  0  0  0  0  0
  1  2  2  0
  2  3  1  0
  3  4  1  0
  4  5  2  0
  5  6  1  0
  6  7  2  0
  7  8  1  0
  8  9  2  0
  9 10  1  0
 10 11  2  0
 11 12  1  0
 12 13  2  0
  2 14  1  0
 14 15  1  0
 15 16  1  0
 16 17  1  6
 17 18  1  0
 16 19  1  0
 19 20  1  0
 20 21  1  0
 21 22  1  0
 22 23  1  0
 19 24  1  0
 13  4  1  0
 24 14  1  0
 13  8  1  0
 23 19  1  0
M  END
>  <cnnaffinities>  (30) 
[5.39305, 5.33618, 5.52685, 5.52686, 5.34807, 5.50331, 5.39468, 5.49542, 5.48937, 5.47735, 5.28456, 5.44591, 5.53239, 5.37953]

>  <score>  (30) 
5.39305

>  <index>  (30) 
12

>  <Smiles>  (30) 
O=C(C(c1c(nc(c2c(c(c(c(c12)[H])[H])[H])[H])[H])[H])([H])[H])N1C([C@](C(F)([H])[H])(C2(C(C(C(C2([H])[H])([H])[H])([H])[H])([H])[H])C1([H])[H])[H])([H])[H]

>  <h>  (30) 
<NA>

>  <Training>  (30) 
True

>  <Success>  (30) 
True

>  <enamine_searched>  (30) 
False

>  <enamine_id>  (30) 
nan

$$$$

     RDKit          3D

 38 43  0  0  0  0  0  0  0  0999 V2000
    6.8690    3.7032   28.3036 C   0  0  0  0  0  0  0  0  0  0  0  0
    6.9466    3.7922   26.8583 N   0  0  0  0  0  0  0  0  0  0  0  0
    6.4497    2.7540   26.1367 C   0  0  0  0  0  0  0  0  0  0  0  0
    5.9165    1.7834   26.6521 O   0  0  0  0  0  0  0  0  0  0  0  0
    6.5883    2.9170   24.6228 C   0  0  0  0  0  0  0  0  0  0  0  0
    7.7408    2.2141   24.0978 N   0  0  0  0  0  0  0  0  0  0  0  0
    7.7106    0.7661   23.9721 C   0  0  0  0  0  0  0  0  0  0  0  0
    8.4018    0.3042   22.6556 C   0  0  2  0  0  0  0  0  0  0  0  0
    7.5817    0.7629   21.4267 C   0  0  0  0  0  0  0  0  0  0  0  0
    7.5757    1.8498   20.8919 O   0  0  0  0  0  0  0  0  0  0  0  0
    6.8446   -0.3141   20.9846 N   0  0  0  0  0  0  0  0  0  0  0  0
    5.8849   -0.1691   19.9650 C   0  0  0  0  0  0  0  0  0  0  0  0
    6.0749   -0.7962   18.7616 C   0  0  0  0  0  0  0  0  0  0  0  0
    5.2649   -0.6533   17.6886 N   0  0  0  0  0  0  0  0  0  0  0  0
    4.2068    0.1096   17.8356 C   0  0  0  0  0  0  0  0  0  0  0  0
    3.8619    0.7677   19.0494 C   0  0  0  0  0  0  0  0  0  0  0  0
    2.6861    1.5524   19.1621 C   0  0  0  0  0  0  0  0  0  0  0  0
    2.3477    2.1345   20.3508 C   0  0  0  0  0  0  0  0  0  0  0  0
    3.1881    1.9914   21.4756 C   0  0  0  0  0  0  0  0  0  0  0  0
    4.3447    1.2618   21.3859 C   0  0  0  0  0  0  0  0  0  0  0  0
    4.7148    0.6281   20.1624 C   0  0  0  0  0  0  0  0  0  0  0  0
    7.0549   -1.5307   21.7386 C   0  0  0  0  0  0  0  0  0  0  0  0
    8.3558   -1.2416   22.4913 C   0  0  2  0  0  0  0  0  0  0  0  0
    8.4992   -2.0872   23.7571 C   0  0  0  0  0  0  0  0  0  0  0  0
    9.6730   -1.7925   24.4820 O   0  0  0  0  0  0  0  0  0  0  0  0
   10.7990   -2.5509   24.0871 C   0  0  0  0  0  0  0  0  0  0  0  0
   12.0360   -2.0506   24.7947 C   0  0  0  0  0  0  0  0  0  0  0  0
   12.1825   -0.6084   25.1853 C   0  0  0  0  0  0  0  0  0  0  0  0
   11.9552   -1.6581   26.2370 C   0  0  0  0  0  0  0  0  0  0  0  0
    9.7868    0.9203   22.6369 C   0  0  0  0  0  0  0  0  0  0  0  0
   10.8753    0.2958   22.0211 C   0  0  0  0  0  0  0  0  0  0  0  0
   12.1453    0.8357   22.1293 C   0  0  0  0  0  0  0  0  0  0  0  0
   13.4941   -0.1310   21.5895 Cl  0  0  0  0  0  0  0  0  0  0  0  0
   12.3582    2.0804   22.7233 C   0  0  0  0  0  0  0  0  0  0  0  0
   11.2726    2.7366   23.2675 C   0  0  0  0  0  0  0  0  0  0  0  0
   10.0038    2.1664   23.2413 C   0  0  0  0  0  0  0  0  0  0  0  0
    8.8707    2.9361   23.8524 C   0  0  0  0  0  0  0  0  0  0  0  0
    8.9446    4.1271   24.1263 O   0  0  0  0  0  0  0  0  0  0  0  0
  1  2  1  0
  2  3  1  0
  3  4  2  0
  3  5  1  0
  5  6  1  0
  6  7  1  0
  8  7  1  1
  8  9  1  0
  9 10  2  0
  9 11  1  0
 11 12  1  0
 12 13  2  0
 13 14  1  0
 14 15  2  0
 15 16  1  0
 16 17  2  0
 17 18  1  0
 18 19  2  0
 19 20  1  0
 20 21  2  0
 11 22  1  0
 22 23  1  0
 23 24  1  1
 24 25  1  0
 25 26  1  0
 26 27  1  0
 27 28  1  0
 28 29  1  0
  8 30  1  0
 30 31  2  0
 31 32  1  0
 32 33  1  0
 32 34  2  0
 34 35  1  0
 35 36  2  0
 36 37  1  0
 37 38  2  0
 37  6  1  0
 23  8  1  0
 29 27  1  0
 36 30  1  0
 21 12  1  0
 21 16  1  0
M  END
>  <cnnaffinities>  (31) 
[6.2466, 6.56959]

>  <score>  (31) 
6.2466

>  <index>  (31) 
13

>  <Smiles>  (31) 
C(N(C(=O)C(N1C([C@@]2(C(=O)N(c3c(nc(c4c(c(c(c(c34)[H])[H])[H])[H])[H])[H])C([C@@]2(C(OC(C2(C(C2([H])[H])([H])[H])[H])([H])[H])([H])[H])[H])([H])[H])c2c(c(Cl)c(c(c2C1=O)[H])[H])[H])([H])[H])([H])[H])[H])([H])([H])[H]

>  <h>  (31) 
<NA>

>  <Training>  (31) 
True

>  <Success>  (31) 
True

>  <enamine_searched>  (31) 
False

>  <enamine_id>  (31) 
nan

$$$$

     RDKit          3D

 22 25  0  0  0  0  0  0  0  0999 V2000
   -9.3481   -4.9442  -25.6907 C   0  0  0  0  0  0  0  0  0  0  0  0
   -9.3467   -4.1954  -24.3574 C   0  0  2  0  0  0  0  0  0  0  0  0
  -10.3482   -3.0414  -24.3809 C   0  0  0  0  0  0  0  0  0  0  0  0
  -10.4241   -2.3524  -23.0160 C   0  0  0  0  0  0  0  0  0  0  0  0
   -9.0854   -2.1150  -22.4685 C   0  0  0  0  0  0  0  0  0  0  0  0
   -8.7207   -1.1897  -21.4428 C   0  0  0  0  0  0  0  0  0  0  0  0
   -9.3826   -0.3217  -20.9200 O   0  0  0  0  0  0  0  0  0  0  0  0
   -7.3468   -1.4710  -21.1965 N   0  0  0  0  0  0  0  0  0  0  0  0
   -6.5724   -0.8442  -20.1811 C   0  0  0  0  0  0  0  0  0  0  0  0
   -6.8892   -1.0532  -18.8633 C   0  0  0  0  0  0  0  0  0  0  0  0
   -6.1994   -0.5453  -17.8093 N   0  0  0  0  0  0  0  0  0  0  0  0
   -5.1620    0.2121  -18.0731 C   0  0  0  0  0  0  0  0  0  0  0  0
   -4.7285    0.5316  -19.3886 C   0  0  0  0  0  0  0  0  0  0  0  0
   -3.6016    1.3667  -19.6262 C   0  0  0  0  0  0  0  0  0  0  0  0
   -3.2230    1.6695  -20.9055 C   0  0  0  0  0  0  0  0  0  0  0  0
   -3.9543    1.1577  -22.0009 C   0  0  0  0  0  0  0  0  0  0  0  0
   -5.0479    0.3539  -21.7975 C   0  0  0  0  0  0  0  0  0  0  0  0
   -5.4569    0.0036  -20.4832 C   0  0  0  0  0  0  0  0  0  0  0  0
   -6.8649   -2.4191  -22.1172 C   0  0  0  0  0  0  0  0  0  0  0  0
   -5.7299   -2.8160  -22.2350 O   0  0  0  0  0  0  0  0  0  0  0  0
   -7.9771   -2.7833  -22.8658 N   0  0  0  0  0  0  0  0  0  0  0  0
   -7.9458   -3.6820  -24.0087 C   0  0  0  0  0  0  0  0  0  0  0  0
  2  1  1  6
  2  3  1  0
  3  4  1  0
  4  5  1  0
  5  6  2  0
  6  7  1  0
  6  8  1  0
  8  9  1  0
  9 10  2  0
 10 11  1  0
 11 12  2  0
 12 13  1  0
 13 14  2  0
 14 15  1  0
 15 16  2  0
 16 17  1  0
 17 18  2  0
  8 19  1  0
 19 20  2  0
 19 21  1  0
 21 22  1  0
 22  2  1  0
 21  5  1  0
 18  9  1  0
 18 13  1  0
M  CHG  1   7  -1
M  END
>  <cnnaffinities>  (32) 
[5.37933, 5.18488, 5.35054, 5.28423, 5.22142, 5.32346]

>  <score>  (32) 
5.37933

>  <index>  (32) 
17

>  <Smiles>  (32) 
C([C@@]1(C(C(c2c([O-])n(c3c(nc(c4c(c(c(c(c34)[H])[H])[H])[H])[H])[H])c(=O)n2C1([H])[H])([H])[H])([H])[H])[H])([H])([H])[H]

>  <h>  (32) 
<NA>

>  <Training>  (32) 
True

>  <Success>  (32) 
True

>  <enamine_searched>  (32) 
False

>  <enamine_id>  (32) 
nan

$$$$

     RDKit          3D

 37 43  0  0  0  0  0  0  0  0999 V2000
    7.7015   -1.6432   24.3683 C   0  0  0  0  0  0  0  0  0  0  0  0
    7.8875   -1.3130   22.8840 C   0  0  1  0  0  0  0  0  0  0  0  0
    6.5471   -1.2902   22.1180 C   0  0  0  0  0  0  0  0  0  0  0  0
    6.8062   -0.3912   21.0135 N   0  0  0  0  0  0  0  0  0  0  0  0
    5.8795   -0.1771   19.9628 C   0  0  0  0  0  0  0  0  0  0  0  0
    6.0631   -0.8078   18.7616 C   0  0  0  0  0  0  0  0  0  0  0  0
    5.2415   -0.6640   17.6932 N   0  0  0  0  0  0  0  0  0  0  0  0
    4.1828    0.0919   17.8421 C   0  0  0  0  0  0  0  0  0  0  0  0
    3.8304    0.7513   19.0535 C   0  0  0  0  0  0  0  0  0  0  0  0
    2.6496    1.5306   19.1790 C   0  0  0  0  0  0  0  0  0  0  0  0
    2.3470    2.1619   20.3510 C   0  0  0  0  0  0  0  0  0  0  0  0
    3.2324    2.0665   21.4473 C   0  0  0  0  0  0  0  0  0  0  0  0
    4.3878    1.3280   21.3516 C   0  0  0  0  0  0  0  0  0  0  0  0
    4.7119    0.6311   20.1538 C   0  0  0  0  0  0  0  0  0  0  0  0
    7.9487    0.3652   21.1537 C   0  0  0  0  0  0  0  0  0  0  0  0
    8.3502    1.1637   20.3330 O   0  0  0  0  0  0  0  0  0  0  0  0
    8.5748    0.0438   22.5357 C   0  0  1  0  0  0  0  0  0  0  0  0
    8.1784    1.1497   23.5507 C   0  0  0  0  0  0  0  0  0  0  0  0
    8.7410    2.4325   23.1922 N   0  0  0  0  0  0  0  0  0  0  0  0
    7.9121    3.6261   23.2363 C   0  0  0  0  0  0  0  0  0  0  0  0
    7.3408    3.9493   21.8544 C   0  0  0  0  0  0  0  0  0  0  0  0
    6.4470    5.1466   21.7883 N   0  0  2  0  0  0  0  0  0  0  0  0
    7.1118    6.5154   21.9517 C   0  0  0  0  0  0  0  0  0  0  0  0
    6.1589    7.2172   22.9351 C   0  0  2  0  0  0  0  0  0  0  0  0
    5.8130    6.0865   23.9080 C   0  0  0  0  0  0  0  0  0  0  0  0
    5.2697    5.2173   22.7735 C   0  0  1  0  0  0  0  0  0  0  0  0
    4.2548    6.1873   22.1748 C   0  0  0  0  0  0  0  0  0  0  0  0
    4.9117    7.4648   22.2690 O   0  0  0  0  0  0  0  0  0  0  0  0
   10.0563    2.5557   22.8625 C   0  0  0  0  0  0  0  0  0  0  0  0
   10.6159    3.6363   22.7575 O   0  0  0  0  0  0  0  0  0  0  0  0
   10.7821    1.2646   22.6102 C   0  0  0  0  0  0  0  0  0  0  0  0
   12.1683    1.3308   22.4907 C   0  0  0  0  0  0  0  0  0  0  0  0
   12.8832    0.1949   22.1946 C   0  0  0  0  0  0  0  0  0  0  0  0
   12.2039   -1.0003   21.9902 C   0  0  0  0  0  0  0  0  0  0  0  0
   13.1963   -2.3648   21.5972 Cl  0  0  0  0  0  0  0  0  0  0  0  0
   10.8270   -1.0910   22.0925 C   0  0  0  0  0  0  0  0  0  0  0  0
   10.0913    0.0502   22.4456 C   0  0  0  0  0  0  0  0  0  0  0  0
  2  1  1  1
  2  3  1  0
  3  4  1  0
  4  5  1  0
  5  6  2  0
  6  7  1  0
  7  8  2  0
  8  9  1  0
  9 10  2  0
 10 11  1  0
 11 12  2  0
 12 13  1  0
 13 14  2  0
  4 15  1  0
 15 16  2  0
 15 17  1  0
 17 18  1  1
 18 19  1  0
 19 20  1  0
 20 21  1  0
 22 21  1  1
 22 23  1  0
 24 23  1  6
 24 25  1  0
 25 26  1  0
 26 27  1  6
 27 28  1  0
 19 29  1  0
 29 30  2  0
 29 31  1  0
 31 32  2  0
 32 33  1  0
 33 34  2  0
 34 35  1  0
 34 36  1  0
 36 37  2  0
 17  2  1  0
 26 22  1  0
 37 31  1  0
 14  5  1  0
 37 17  1  0
 14  9  1  0
 28 24  1  0
M  CHG  1  22   1
M  END
>  <cnnaffinities>  (33) 
[6.43812, 6.56952, 6.24488, 6.34216]

>  <score>  (33) 
6.43812

>  <index>  (33) 
14

>  <Smiles>  (33) 
C([C@]1(C(N(c2c(nc(c3c(c(c(c(c23)[H])[H])[H])[H])[H])[H])C(=O)[C@]21C(N(C(C([N@@+]1(C([C@@]3(C([C@]1(C(O3)([H])[H])[H])([H])[H])[H])([H])[H])[H])([H])[H])([H])[H])C(=O)c1c(c(c(Cl)c(c21)[H])[H])[H])([H])[H])([H])[H])[H])([H])([H])[H]

>  <h>  (33) 
<NA>

>  <Training>  (33) 
True

>  <Success>  (33) 
True

>  <enamine_searched>  (33) 
False

>  <enamine_id>  (33) 
nan

$$$$

     RDKit          3D

 38 43  0  0  0  0  0  0  0  0999 V2000
    3.7135    6.6547   20.7260 C   0  0  0  0  0  0  0  0  0  0  0  0
    3.8684    5.9720   22.0755 C   0  0  1  0  0  0  0  0  0  0  0  0
    4.9888    4.9257   22.1049 C   0  0  0  0  0  0  0  0  0  0  0  0
    6.3552    5.5515   22.2021 N   0  0  2  0  0  0  0  0  0  0  0  0
    7.4556    4.5136   22.2014 C   0  0  0  0  0  0  0  0  0  0  0  0
    7.6609    3.7842   23.5392 C   0  0  0  0  0  0  0  0  0  0  0  0
    8.5470    2.6387   23.4019 N   0  0  0  0  0  0  0  0  0  0  0  0
    8.0610    1.2908   23.6259 C   0  0  0  0  0  0  0  0  0  0  0  0
    8.5425    0.3064   22.5317 C   0  0  2  0  0  0  0  0  0  0  0  0
    7.8316    0.6255   21.1960 C   0  0  0  0  0  0  0  0  0  0  0  0
    8.0595    1.5475   20.4426 O   0  0  0  0  0  0  0  0  0  0  0  0
    6.8550   -0.3189   20.9805 N   0  0  0  0  0  0  0  0  0  0  0  0
    5.8892   -0.1564   19.9540 C   0  0  0  0  0  0  0  0  0  0  0  0
    6.0637   -0.8023   18.7582 C   0  0  0  0  0  0  0  0  0  0  0  0
    5.2393   -0.6690   17.6927 N   0  0  0  0  0  0  0  0  0  0  0  0
    4.1829    0.0925   17.8418 C   0  0  0  0  0  0  0  0  0  0  0  0
    3.8348    0.7584   19.0535 C   0  0  0  0  0  0  0  0  0  0  0  0
    2.6473    1.5286   19.1837 C   0  0  0  0  0  0  0  0  0  0  0  0
    2.3322    2.1362   20.3652 C   0  0  0  0  0  0  0  0  0  0  0  0
    3.2067    2.0247   21.4678 C   0  0  0  0  0  0  0  0  0  0  0  0
    4.3709    1.3018   21.3670 C   0  0  0  0  0  0  0  0  0  0  0  0
    4.7158    0.6399   20.1523 C   0  0  0  0  0  0  0  0  0  0  0  0
    6.7493   -1.3178   22.0212 C   0  0  0  0  0  0  0  0  0  0  0  0
    8.0608   -1.1560   22.8161 C   0  0  2  0  0  0  0  0  0  0  0  0
    7.9006   -1.5659   24.2835 C   0  0  0  0  0  0  0  0  0  0  0  0
   10.0408    0.4863   22.3696 C   0  0  0  0  0  0  0  0  0  0  0  0
   10.8035   -0.4989   21.7321 C   0  0  0  0  0  0  0  0  0  0  0  0
   12.1682   -0.3310   21.5907 C   0  0  0  0  0  0  0  0  0  0  0  0
   13.0772   -1.5708   20.7731 Cl  0  0  0  0  0  0  0  0  0  0  0  0
   12.8062    0.8378   22.0059 C   0  0  0  0  0  0  0  0  0  0  0  0
   12.0466    1.8462   22.5671 C   0  0  0  0  0  0  0  0  0  0  0  0
   10.6709    1.6883   22.7280 C   0  0  0  0  0  0  0  0  0  0  0  0
    9.8776    2.8709   23.2151 C   0  0  0  0  0  0  0  0  0  0  0  0
   10.3905    3.9700   23.3880 O   0  0  0  0  0  0  0  0  0  0  0  0
    6.4145    6.5830   23.3214 C   0  0  1  0  0  0  0  0  0  0  0  0
    7.7454    7.3202   23.3221 C   0  0  0  0  0  0  0  0  0  0  0  0
    5.2469    7.5524   23.1545 C   0  0  0  0  0  0  0  0  0  0  0  0
    4.0032    6.8884   23.1511 O   0  0  0  0  0  0  0  0  0  0  0  0
  2  1  1  6
  2  3  1  0
  3  4  1  0
  4  5  1  1
  5  6  1  0
  6  7  1  0
  7  8  1  0
  9  8  1  1
  9 10  1  0
 10 11  2  0
 10 12  1  0
 12 13  1  0
 13 14  2  0
 14 15  1  0
 15 16  2  0
 16 17  1  0
 17 18  2  0
 18 19  1  0
 19 20  2  0
 20 21  1  0
 21 22  2  0
 12 23  1  0
 23 24  1  0
 24 25  1  1
  9 26  1  0
 26 27  2  0
 27 28  1  0
 28 29  1  0
 28 30  2  0
 30 31  1  0
 31 32  2  0
 32 33  1  0
 33 34  2  0
  4 35  1  0
 35 36  1  6
 35 37  1  0
 37 38  1  0
 38  2  1  0
 33  7  1  0
 24  9  1  0
 32 26  1  0
 22 13  1  0
 22 17  1  0
M  CHG  1   4   1
M  END
>  <cnnaffinities>  (34) 
[6.46639, 6.30313]

>  <score>  (34) 
6.46639

>  <index>  (34) 
15

>  <Smiles>  (34) 
C([C@]1(C([N@+](C(C(N2C([C@@]3(C(=O)N(c4c(nc(c5c(c(c(c(c45)[H])[H])[H])[H])[H])[H])C([C@@]3(C([H])([H])[H])[H])([H])[H])c3c(c(Cl)c(c(c3C2=O)[H])[H])[H])([H])[H])([H])[H])([H])[H])([C@@](C([H])([H])[H])(C(O1)([H])[H])[H])[H])([H])[H])[H])([H])([H])[H]

>  <h>  (34) 
<NA>

>  <Training>  (34) 
True

>  <Success>  (34) 
True

>  <enamine_searched>  (34) 
False

>  <enamine_id>  (34) 
nan

$$$$

     RDKit          3D

 34 39  0  0  0  0  0  0  0  0999 V2000
   -7.8670   -3.5921  -24.1109 C   0  0  0  0  0  0  0  0  0  0  0  0
   -8.2727   -2.8569  -22.8258 C   0  0  1  0  0  0  0  0  0  0  0  0
   -7.0695   -2.6138  -21.8867 C   0  0  0  0  0  0  0  0  0  0  0  0
   -7.3992   -1.3817  -21.1980 N   0  0  0  0  0  0  0  0  0  0  0  0
   -6.5991   -0.8102  -20.1693 C   0  0  0  0  0  0  0  0  0  0  0  0
   -6.9072   -1.0436  -18.8558 C   0  0  0  0  0  0  0  0  0  0  0  0
   -6.2071   -0.5490  -17.8032 N   0  0  0  0  0  0  0  0  0  0  0  0
   -5.1725    0.2110  -18.0744 C   0  0  0  0  0  0  0  0  0  0  0  0
   -4.7343    0.5343  -19.3915 C   0  0  0  0  0  0  0  0  0  0  0  0
   -3.6053    1.3664  -19.6381 C   0  0  0  0  0  0  0  0  0  0  0  0
   -3.2088    1.6408  -20.9154 C   0  0  0  0  0  0  0  0  0  0  0  0
   -3.9144    1.0897  -22.0091 C   0  0  0  0  0  0  0  0  0  0  0  0
   -5.0051    0.2784  -21.7985 C   0  0  0  0  0  0  0  0  0  0  0  0
   -5.4558   -0.0071  -20.4811 C   0  0  0  0  0  0  0  0  0  0  0  0
   -8.4315   -0.6717  -21.7678 C   0  0  0  0  0  0  0  0  0  0  0  0
   -8.8313    0.3901  -21.3427 O   0  0  0  0  0  0  0  0  0  0  0  0
   -8.9596   -1.4667  -22.9993 C   0  0  1  0  0  0  0  0  0  0  0  0
   -8.5038   -0.7859  -24.3189 C   0  0  0  0  0  0  0  0  0  0  0  0
   -9.1880    0.4653  -24.5611 N   0  0  0  0  0  0  0  0  0  0  0  0
   -8.4127    1.6609  -24.8706 C   0  0  0  0  0  0  0  0  0  0  0  0
   -8.1070    2.4881  -23.6486 C   0  0  0  0  0  0  0  0  0  0  0  0
   -8.9490    3.4370  -23.0245 C   0  0  0  0  0  0  0  0  0  0  0  0
   -8.1651    3.9760  -22.0291 C   0  0  0  0  0  0  0  0  0  0  0  0
   -6.9855    3.3233  -22.0676 N   0  0  0  0  0  0  0  0  0  0  0  0
   -6.9237    2.4076  -23.0441 N   0  0  0  0  0  0  0  0  0  0  0  0
  -10.5173    0.6461  -24.2971 C   0  0  0  0  0  0  0  0  0  0  0  0
  -11.0781    1.7186  -24.4963 O   0  0  0  0  0  0  0  0  0  0  0  0
  -11.2170   -0.5145  -23.6527 C   0  0  0  0  0  0  0  0  0  0  0  0
  -12.6116   -0.5281  -23.6303 C   0  0  0  0  0  0  0  0  0  0  0  0
  -13.2908   -1.4206  -22.8284 C   0  0  0  0  0  0  0  0  0  0  0  0
  -12.5468   -2.2858  -22.0315 C   0  0  0  0  0  0  0  0  0  0  0  0
  -13.2057   -3.1022  -21.1913 F   0  0  0  0  0  0  0  0  0  0  0  0
  -11.1682   -2.3291  -22.0744 C   0  0  0  0  0  0  0  0  0  0  0  0
  -10.4797   -1.4839  -22.9596 C   0  0  0  0  0  0  0  0  0  0  0  0
  2  1  1  6
  2  3  1  0
  3  4  1  0
  4  5  1  0
  5  6  2  0
  6  7  1  0
  7  8  2  0
  8  9  1  0
  9 10  2  0
 10 11  1  0
 11 12  2  0
 12 13  1  0
 13 14  2  0
  4 15  1  0
 15 16  2  0
 15 17  1  0
 17 18  1  6
 18 19  1  0
 19 20  1  0
 20 21  1  0
 21 22  1  0
 22 23  2  0
 23 24  1  0
 24 25  1  0
 19 26  1  0
 26 27  2  0
 26 28  1  0
 28 29  2  0
 29 30  1  0
 30 31  2  0
 31 32  1  0
 31 33  1  0
 33 34  2  0
 17  2  1  0
 25 21  2  0
 34 28  1  0
 14  5  1  0
 34 17  1  0
 14  9  1  0
M  END
>  <cnnaffinities>  (35) 
[6.9206]

>  <score>  (35) 
6.9206

>  <index>  (35) 
1

>  <Smiles>  (35) 
C([C@]1(C(N(c2c(nc(c3c(c(c(c(c23)[H])[H])[H])[H])[H])[H])C(=O)[C@]21C(N(C(c1c(c(n(n1)[H])[H])[H])([H])[H])C(=O)c1c(c(c(F)c(c21)[H])[H])[H])([H])[H])([H])[H])[H])([H])([H])[H]

>  <h>  (35) 
<NA>

>  <Training>  (35) 
True

>  <Success>  (35) 
True

>  <enamine_searched>  (35) 
False

>  <enamine_id>  (35) 
nan

$$$$

     RDKit          3D

 25 28  0  0  0  0  0  0  0  0999 V2000
    6.9056    3.8971   24.5227 C   0  0  0  0  0  0  0  0  0  0  0  0
    8.1936    3.1541   24.1890 C   0  0  1  0  0  0  0  0  0  0  0  0
    8.2063    1.7608   24.8229 C   0  0  0  0  0  0  0  0  0  0  0  0
    7.7450    0.7688   23.7573 C   0  0  2  0  0  0  0  0  0  0  0  0
    8.5589   -0.5174   23.7902 C   0  0  0  0  0  0  0  0  0  0  0  0
    7.9973   -1.6812   24.3095 C   0  0  0  0  0  0  0  0  0  0  0  0
    8.7265   -2.8668   24.3539 C   0  0  0  0  0  0  0  0  0  0  0  0
   10.0359   -2.8980   23.8847 C   0  0  0  0  0  0  0  0  0  0  0  0
   10.6162   -1.7343   23.3883 C   0  0  0  0  0  0  0  0  0  0  0  0
    9.8871   -0.5507   23.3516 C   0  0  0  0  0  0  0  0  0  0  0  0
    7.8832    1.5040   22.5155 N   0  0  0  0  0  0  0  0  0  0  0  0
    7.6809    0.9911   21.2631 C   0  0  0  0  0  0  0  0  0  0  0  0
    8.1083    1.5610   20.2799 O   0  0  0  0  0  0  0  0  0  0  0  0
    6.8795   -0.3107   21.0799 C   0  0  0  0  0  0  0  0  0  0  0  0
    5.8606   -0.1802   19.9726 C   0  0  0  0  0  0  0  0  0  0  0  0
    6.0373   -0.8014   18.7656 C   0  0  0  0  0  0  0  0  0  0  0  0
    5.2204   -0.6736   17.6842 N   0  0  0  0  0  0  0  0  0  0  0  0
    4.1615    0.0827   17.8289 C   0  0  0  0  0  0  0  0  0  0  0  0
    3.8192    0.7449   19.0390 C   0  0  0  0  0  0  0  0  0  0  0  0
    2.6379    1.5139   19.1708 C   0  0  0  0  0  0  0  0  0  0  0  0
    2.3339    2.1491   20.3418 C   0  0  0  0  0  0  0  0  0  0  0  0
    3.2176    2.0523   21.4390 C   0  0  0  0  0  0  0  0  0  0  0  0
    4.3690    1.3116   21.3413 C   0  0  0  0  0  0  0  0  0  0  0  0
    4.6984    0.6253   20.1434 C   0  0  0  0  0  0  0  0  0  0  0  0
    8.3566    2.8760   22.6910 C   0  0  0  0  0  0  0  0  0  0  0  0
  2  1  1  6
  2  3  1  0
  3  4  1  0
  4  5  1  6
  5  6  2  0
  6  7  1  0
  7  8  2  0
  8  9  1  0
  9 10  2  0
  4 11  1  0
 11 12  1  0
 12 13  2  0
 12 14  1  0
 14 15  1  0
 15 16  2  0
 16 17  1  0
 17 18  2  0
 18 19  1  0
 19 20  2  0
 20 21  1  0
 21 22  2  0
 22 23  1  0
 23 24  2  0
 11 25  1  0
 25  2  1  0
 10  5  1  0
 24 15  1  0
 24 19  1  0
M  END
>  <cnnaffinities>  (36) 
[5.55057, 5.55055, 5.49377, 5.4936, 5.59562, 5.59591]

>  <score>  (36) 
5.55057

>  <index>  (36) 
16

>  <Smiles>  (36) 
C([C@]1(C([C@](c2c(c(c(c(c2[H])[H])[H])[H])[H])(N(C(=O)C(c2c(nc(c3c(c(c(c(c23)[H])[H])[H])[H])[H])[H])([H])[H])C1([H])[H])[H])([H])[H])[H])([H])([H])[H]

>  <h>  (36) 
<NA>

>  <Training>  (36) 
True

>  <Success>  (36) 
True

>  <enamine_searched>  (36) 
False

>  <enamine_id>  (36) 
nan

$$$$

     RDKit          3D

 26 29  0  0  0  0  0  0  0  0999 V2000
   -9.1438   -0.0672  -20.7324 O   0  0  0  0  0  0  0  0  0  0  0  0
   -8.6518   -0.9056  -21.4587 C   0  0  0  0  0  0  0  0  0  0  0  0
   -9.3534   -1.4979  -22.6897 C   0  0  1  0  0  0  0  0  0  0  0  0
  -10.4150   -0.5530  -23.2105 C   0  0  0  0  0  0  0  0  0  0  0  0
  -11.7284   -0.9617  -23.4383 C   0  0  0  0  0  0  0  0  0  0  0  0
  -12.6987   -0.0645  -23.8743 C   0  0  0  0  0  0  0  0  0  0  0  0
  -12.3744    1.2749  -24.0583 C   0  0  0  0  0  0  0  0  0  0  0  0
  -13.5989    2.4499  -24.3478 Cl  0  0  0  0  0  0  0  0  0  0  0  0
  -11.0368    1.6535  -23.9577 C   0  0  0  0  0  0  0  0  0  0  0  0
  -10.5352    3.2576  -24.3546 Cl  0  0  0  0  0  0  0  0  0  0  0  0
  -10.0713    0.7568  -23.5262 C   0  0  0  0  0  0  0  0  0  0  0  0
   -8.3183   -1.7893  -23.7779 C   0  0  0  0  0  0  0  0  0  0  0  0
   -7.2346   -2.7647  -23.3316 C   0  0  2  0  0  0  0  0  0  0  0  0
   -7.5399   -4.1133  -23.6529 O   0  0  0  0  0  0  0  0  0  0  0  0
   -6.9352   -2.6389  -21.8320 C   0  0  0  0  0  0  0  0  0  0  0  0
   -7.3691   -1.3764  -21.2538 N   0  0  0  0  0  0  0  0  0  0  0  0
   -6.6086   -0.8060  -20.1923 C   0  0  0  0  0  0  0  0  0  0  0  0
   -6.9101   -1.0532  -18.8769 C   0  0  0  0  0  0  0  0  0  0  0  0
   -6.2077   -0.5621  -17.8223 N   0  0  0  0  0  0  0  0  0  0  0  0
   -5.1710    0.2027  -18.0781 C   0  0  0  0  0  0  0  0  0  0  0  0
   -4.7288    0.5241  -19.3929 C   0  0  0  0  0  0  0  0  0  0  0  0
   -3.6012    1.3548  -19.6350 C   0  0  0  0  0  0  0  0  0  0  0  0
   -3.2145    1.6398  -20.9160 C   0  0  0  0  0  0  0  0  0  0  0  0
   -3.9327    1.1054  -22.0101 C   0  0  0  0  0  0  0  0  0  0  0  0
   -5.0242    0.3011  -21.7985 C   0  0  0  0  0  0  0  0  0  0  0  0
   -5.4559   -0.0035  -20.4830 C   0  0  0  0  0  0  0  0  0  0  0  0
  1  2  2  0
  2  3  1  0
  3  4  1  6
  4  5  2  0
  5  6  1  0
  6  7  2  0
  7  8  1  0
  7  9  1  0
  9 10  1  0
  9 11  2  0
  3 12  1  0
 12 13  1  0
 13 14  1  1
 13 15  1  0
 15 16  1  0
 16 17  1  0
 17 18  2  0
 18 19  1  0
 19 20  2  0
 20 21  1  0
 21 22  2  0
 22 23  1  0
 23 24  2  0
 24 25  1  0
 25 26  2  0
 16  2  1  0
 26 17  1  0
 11  4  1  0
 26 21  1  0
M  END
>  <cnnaffinities>  (37) 
[5.71547, 5.25952]

>  <score>  (37) 
5.71547

>  <index>  (37) 
19

>  <Smiles>  (37) 
O=C1[C@@](c2c(c(c(Cl)c(Cl)c2[H])[H])[H])(C([C@](O[H])(C(N1c1c(nc(c2c(c(c(c(c12)[H])[H])[H])[H])[H])[H])([H])[H])[H])([H])[H])[H]

>  <h>  (37) 
<NA>

>  <Training>  (37) 
True

>  <Success>  (37) 
True

>  <enamine_searched>  (37) 
False

>  <enamine_id>  (37) 
nan

$$$$

     RDKit          3D

 35 40  0  0  0  0  0  0  0  0999 V2000
    8.2112   -1.9236   23.9687 C   0  0  0  0  0  0  0  0  0  0  0  0
    8.2494   -1.2187   22.6183 C   0  0  1  0  0  0  0  0  0  0  0  0
    6.9944   -1.4922   21.7818 C   0  0  0  0  0  0  0  0  0  0  0  0
    6.8661   -0.3018   20.9726 N   0  0  0  0  0  0  0  0  0  0  0  0
    5.9007   -0.1501   19.9610 C   0  0  0  0  0  0  0  0  0  0  0  0
    6.0863   -0.7827   18.7607 C   0  0  0  0  0  0  0  0  0  0  0  0
    5.2734   -0.6406   17.6896 N   0  0  0  0  0  0  0  0  0  0  0  0
    4.2206    0.1267   17.8506 C   0  0  0  0  0  0  0  0  0  0  0  0
    3.8828    0.7887   19.0643 C   0  0  0  0  0  0  0  0  0  0  0  0
    2.7121    1.5800   19.1815 C   0  0  0  0  0  0  0  0  0  0  0  0
    2.3745    2.1536   20.3727 C   0  0  0  0  0  0  0  0  0  0  0  0
    3.2105    1.9974   21.5023 C   0  0  0  0  0  0  0  0  0  0  0  0
    4.3687    1.2673   21.4077 C   0  0  0  0  0  0  0  0  0  0  0  0
    4.7356    0.6452   20.1774 C   0  0  0  0  0  0  0  0  0  0  0  0
    7.6167    0.7681   21.3964 C   0  0  0  0  0  0  0  0  0  0  0  0
    7.6174    1.8517   20.8481 O   0  0  0  0  0  0  0  0  0  0  0  0
    8.3920    0.3318   22.6589 C   0  0  1  0  0  0  0  0  0  0  0  0
    7.7203    0.9270   23.9284 C   0  0  0  0  0  0  0  0  0  0  0  0
    7.8556    2.3778   24.0061 N   0  0  0  0  0  0  0  0  0  0  0  0
    6.6401    3.1892   23.9960 C   0  0  0  0  0  0  0  0  0  0  0  0
    5.7068    2.8351   25.0997 C   0  0  0  0  0  0  0  0  0  0  0  0
    4.4986    2.3359   24.9839 N   0  0  0  0  0  0  0  0  0  0  0  0
    3.9972    2.1670   26.2491 N   0  0  0  0  0  0  0  0  0  0  0  0
    4.9160    2.5716   27.0781 C   0  0  0  0  0  0  0  0  0  0  0  0
    6.0221    3.0138   26.4149 N   0  0  0  0  0  0  0  0  0  0  0  0
    7.2878    3.4727   26.9584 C   0  0  0  0  0  0  0  0  0  0  0  0
    9.0211    3.0046   23.6481 C   0  0  0  0  0  0  0  0  0  0  0  0
    9.1547    4.2210   23.7241 O   0  0  0  0  0  0  0  0  0  0  0  0
   10.1165    2.1131   23.1383 C   0  0  0  0  0  0  0  0  0  0  0  0
   11.4271    2.5875   23.1312 C   0  0  0  0  0  0  0  0  0  0  0  0
   12.4572    1.8317   22.6004 C   0  0  0  0  0  0  0  0  0  0  0  0
   12.1264    0.6098   22.0251 C   0  0  0  0  0  0  0  0  0  0  0  0
   13.0869   -0.1444   21.4623 F   0  0  0  0  0  0  0  0  0  0  0  0
   10.8373    0.1258   21.9965 C   0  0  0  0  0  0  0  0  0  0  0  0
    9.8127    0.8483   22.6135 C   0  0  0  0  0  0  0  0  0  0  0  0
  2  1  1  1
  2  3  1  0
  3  4  1  0
  4  5  1  0
  5  6  2  0
  6  7  1  0
  7  8  2  0
  8  9  1  0
  9 10  2  0
 10 11  1  0
 11 12  2  0
 12 13  1  0
 13 14  2  0
  4 15  1  0
 15 16  2  0
 15 17  1  0
 17 18  1  1
 18 19  1  0
 19 20  1  0
 20 21  1  0
 21 22  2  0
 22 23  1  0
 23 24  2  0
 24 25  1  0
 25 26  1  0
 19 27  1  0
 27 28  2  0
 27 29  1  0
 29 30  2  0
 30 31  1  0
 31 32  2  0
 32 33  1  0
 32 34  1  0
 34 35  2  0
 17  2  1  0
 25 21  1  0
 35 29  1  0
 14  5  1  0
 35 17  1  0
 14  9  1  0
M  END
>  <cnnaffinities>  (38) 
[6.0697, 6.11515, 6.14091, 6.15629]

>  <score>  (38) 
6.0697

>  <index>  (38) 
17

>  <Smiles>  (38) 
C([C@]1(C(N(c2c(nc(c3c(c(c(c(c23)[H])[H])[H])[H])[H])[H])C(=O)[C@]21C(N(C(c1nnc(n1C([H])([H])[H])[H])([H])[H])C(=O)c1c(c(c(F)c(c21)[H])[H])[H])([H])[H])([H])[H])[H])([H])([H])[H]

>  <h>  (38) 
<NA>

>  <Training>  (38) 
True

>  <Success>  (38) 
True

>  <enamine_searched>  (38) 
False

>  <enamine_id>  (38) 
nan

$$$$

     RDKit          3D

 39 44  0  0  0  0  0  0  0  0999 V2000
   -7.2022    2.9696  -22.8591 C   0  0  0  0  0  0  0  0  0  0  0  0
   -8.2793    2.2055  -23.4595 N   0  0  0  0  0  0  0  0  0  0  0  0
   -8.1484    1.5664  -24.6508 C   0  0  0  0  0  0  0  0  0  0  0  0
   -7.0874    1.4231  -25.2379 O   0  0  0  0  0  0  0  0  0  0  0  0
   -9.4797    1.0149  -25.1734 C   0  0  0  0  0  0  0  0  0  0  0  0
  -10.0149    0.0320  -24.2502 N   0  0  0  0  0  0  0  0  0  0  0  0
   -9.3109   -1.2294  -24.0958 C   0  0  0  0  0  0  0  0  0  0  0  0
   -9.5025   -1.8274  -22.6803 C   0  0  2  0  0  0  0  0  0  0  0  0
   -8.9223   -0.8591  -21.6046 C   0  0  0  0  0  0  0  0  0  0  0  0
   -9.4627    0.1185  -21.1221 O   0  0  0  0  0  0  0  0  0  0  0  0
   -7.6698   -1.3050  -21.2630 N   0  0  0  0  0  0  0  0  0  0  0  0
   -6.8984   -0.7354  -20.2241 C   0  0  0  0  0  0  0  0  0  0  0  0
   -7.2279   -0.9909  -18.9148 C   0  0  0  0  0  0  0  0  0  0  0  0
   -6.4983   -0.5826  -17.8477 N   0  0  0  0  0  0  0  0  0  0  0  0
   -5.4106    0.1101  -18.0947 C   0  0  0  0  0  0  0  0  0  0  0  0
   -4.9596    0.4569  -19.4020 C   0  0  0  0  0  0  0  0  0  0  0  0
   -3.7783    1.2204  -19.6182 C   0  0  0  0  0  0  0  0  0  0  0  0
   -3.3681    1.5163  -20.8882 C   0  0  0  0  0  0  0  0  0  0  0  0
   -4.1046    1.0618  -22.0028 C   0  0  0  0  0  0  0  0  0  0  0  0
   -5.2561    0.3271  -21.8203 C   0  0  0  0  0  0  0  0  0  0  0  0
   -5.7144    0.0130  -20.5121 C   0  0  0  0  0  0  0  0  0  0  0  0
   -7.2591   -2.4703  -22.0076 C   0  0  0  0  0  0  0  0  0  0  0  0
   -8.5869   -3.0888  -22.4718 C   0  0  2  0  0  0  0  0  0  0  0  0
   -8.3977   -4.0563  -23.6625 C   0  0  0  0  0  0  0  0  0  0  0  0
   -7.4148   -5.2017  -23.4622 C   0  0  0  0  0  0  0  0  0  0  0  0
   -6.0331   -4.9964  -23.5812 C   0  0  0  0  0  0  0  0  0  0  0  0
   -5.1372   -6.0604  -23.5625 C   0  0  0  0  0  0  0  0  0  0  0  0
   -5.5940   -7.3629  -23.3845 C   0  0  0  0  0  0  0  0  0  0  0  0
   -6.9580   -7.5808  -23.2196 C   0  0  0  0  0  0  0  0  0  0  0  0
   -7.8511   -6.5115  -23.2501 C   0  0  0  0  0  0  0  0  0  0  0  0
  -11.0068   -1.9531  -22.4989 C   0  0  0  0  0  0  0  0  0  0  0  0
  -11.6085   -2.9480  -21.7262 C   0  0  0  0  0  0  0  0  0  0  0  0
  -12.9708   -2.8945  -21.4690 C   0  0  0  0  0  0  0  0  0  0  0  0
  -13.7134   -4.0337  -20.3945 Cl  0  0  0  0  0  0  0  0  0  0  0  0
  -13.7818   -1.8875  -21.9827 C   0  0  0  0  0  0  0  0  0  0  0  0
  -13.2015   -0.9057  -22.7482 C   0  0  0  0  0  0  0  0  0  0  0  0
  -11.8377   -0.9398  -23.0088 C   0  0  0  0  0  0  0  0  0  0  0  0
  -11.3106    0.1683  -23.8548 C   0  0  0  0  0  0  0  0  0  0  0  0
  -11.9937    1.1419  -24.1505 O   0  0  0  0  0  0  0  0  0  0  0  0
  1  2  1  0
  2  3  1  0
  3  4  2  0
  3  5  1  0
  5  6  1  0
  6  7  1  0
  8  7  1  6
  8  9  1  0
  9 10  2  0
  9 11  1  0
 11 12  1  0
 12 13  2  0
 13 14  1  0
 14 15  2  0
 15 16  1  0
 16 17  2  0
 17 18  1  0
 18 19  2  0
 19 20  1  0
 20 21  2  0
 11 22  1  0
 22 23  1  0
 23 24  1  6
 24 25  1  0
 25 26  2  0
 26 27  1  0
 27 28  2  0
 28 29  1  0
 29 30  2  0
  8 31  1  0
 31 32  2  0
 32 33  1  0
 33 34  1  0
 33 35  2  0
 35 36  1  0
 36 37  2  0
 37 38  1  0
 38 39  2  0
 38  6  1  0
 23  8  1  0
 30 25  1  0
 37 31  1  0
 21 12  1  0
 21 16  1  0
M  END
>  <cnnaffinities>  (39) 
[7.22684, 7.22525, 6.94579, 6.91456, 6.83126]

>  <score>  (39) 
7.22684

>  <index>  (39) 
20

>  <Smiles>  (39) 
C(N(C(=O)C(N1C([C@@]2(C(=O)N(c3c(nc(c4c(c(c(c(c34)[H])[H])[H])[H])[H])[H])C([C@@]2(C(c2c(c(c(c(c2[H])[H])[H])[H])[H])([H])[H])[H])([H])[H])c2c(c(Cl)c(c(c2C1=O)[H])[H])[H])([H])[H])([H])[H])[H])([H])([H])[H]

>  <h>  (39) 
<NA>

>  <Training>  (39) 
True

>  <Success>  (39) 
True

>  <enamine_searched>  (39) 
False

>  <enamine_id>  (39) 
nan

$$$$

     RDKit          3D

 24 27  0  0  0  0  0  0  0  0999 V2000
    5.2595    0.2940   29.9963 C   0  0  0  0  0  0  0  0  0  0  0  0
    5.1550   -0.4084   28.6498 C   0  0  1  0  0  0  0  0  0  0  0  0
    4.9240    0.5854   27.5116 C   0  0  0  0  0  0  0  0  0  0  0  0
    4.8654   -0.0962   26.1422 C   0  0  0  0  0  0  0  0  0  0  0  0
    6.0782   -1.0078   25.8329 C   0  0  2  0  0  0  0  0  0  0  0  0
    7.3405   -0.1714   25.5250 C   0  0  0  0  0  0  0  0  0  0  0  0
    7.3353    0.0805   24.0129 C   0  0  0  0  0  0  0  0  0  0  0  0
    6.4978   -0.9779   23.4638 N   0  0  0  0  0  0  0  0  0  0  0  0
    6.3595   -1.3172   22.1497 C   0  0  0  0  0  0  0  0  0  0  0  0
    5.8220   -2.3578   21.8077 O   0  0  0  0  0  0  0  0  0  0  0  0
    6.8713   -0.3348   21.0784 C   0  0  0  0  0  0  0  0  0  0  0  0
    5.8651   -0.1732   19.9659 C   0  0  0  0  0  0  0  0  0  0  0  0
    6.0294   -0.8114   18.7630 C   0  0  0  0  0  0  0  0  0  0  0  0
    5.2141   -0.6829   17.6827 N   0  0  0  0  0  0  0  0  0  0  0  0
    4.1574    0.0816   17.8263 C   0  0  0  0  0  0  0  0  0  0  0  0
    3.8171    0.7442   19.0401 C   0  0  0  0  0  0  0  0  0  0  0  0
    2.6273    1.5029   19.1725 C   0  0  0  0  0  0  0  0  0  0  0  0
    2.3190    2.1273   20.3517 C   0  0  0  0  0  0  0  0  0  0  0  0
    3.1974    2.0235   21.4501 C   0  0  0  0  0  0  0  0  0  0  0  0
    4.3579    1.2915   21.3500 C   0  0  0  0  0  0  0  0  0  0  0  0
    4.6943    0.6237   20.1402 C   0  0  0  0  0  0  0  0  0  0  0  0
    5.8644   -1.7767   24.5086 C   0  0  0  0  0  0  0  0  0  0  0  0
    6.2926   -1.9747   27.0147 C   0  0  0  0  0  0  0  0  0  0  0  0
    6.3805   -1.2655   28.3599 C   0  0  0  0  0  0  0  0  0  0  0  0
  2  1  1  1
  2  3  1  0
  3  4  1  0
  5  4  1  1
  5  6  1  0
  6  7  1  0
  7  8  1  0
  8  9  1  0
  9 10  2  0
  9 11  1  0
 11 12  1  0
 12 13  2  0
 13 14  1  0
 14 15  2  0
 15 16  1  0
 16 17  2  0
 17 18  1  0
 18 19  2  0
 19 20  1  0
 20 21  2  0
  8 22  1  0
  5 23  1  0
 23 24  1  0
 24  2  1  0
 22  5  1  0
 21 12  1  0
 21 16  1  0
M  END
>  <cnnaffinities>  (40) 
[5.41118, 5.56973]

>  <score>  (40) 
5.41118

>  <index>  (40) 
18

>  <Smiles>  (40) 
C([C@]1(C(C([C@@]2(C(C(N(C(=O)C(c3c(nc(c4c(c(c(c(c34)[H])[H])[H])[H])[H])[H])([H])[H])C2([H])[H])([H])[H])([H])[H])C(C1([H])[H])([H])[H])([H])[H])([H])[H])[H])([H])([H])[H]

>  <h>  (40) 
<NA>

>  <Training>  (40) 
True

>  <Success>  (40) 
True

>  <enamine_searched>  (40) 
False

>  <enamine_id>  (40) 
nan

$$$$

     RDKit          3D

 39 43  0  0  0  0  0  0  0  0999 V2000
   12.4391    0.3459   21.9871 O   0  0  0  0  0  0  0  0  0  0  0  0
   11.9468    0.4378   23.1045 C   0  0  0  0  0  0  0  0  0  0  0  0
   11.2780   -0.7994   23.7070 C   0  0  0  0  0  0  0  0  0  0  0  0
   10.9698   -1.6867   22.5387 N   0  0  1  0  0  0  0  0  0  0  0  0
   10.7904   -3.1063   22.9082 C   0  0  0  0  0  0  0  0  0  0  0  0
    9.5378   -3.3094   23.7324 C   0  0  0  0  0  0  0  0  0  0  0  0
    9.4525   -4.3447   24.6530 C   0  0  0  0  0  0  0  0  0  0  0  0
    8.2655   -4.6013   25.3212 C   0  0  0  0  0  0  0  0  0  0  0  0
    7.1617   -3.7886   25.0943 C   0  0  0  0  0  0  0  0  0  0  0  0
    5.6748   -4.1083   25.9350 Cl  0  0  0  0  0  0  0  0  0  0  0  0
    7.2445   -2.7144   24.2279 C   0  0  0  0  0  0  0  0  0  0  0  0
    8.4342   -2.4733   23.5417 C   0  0  0  0  0  0  0  0  0  0  0  0
    8.4674   -1.3300   22.5575 C   0  0  2  0  0  0  0  0  0  0  0  0
    7.3201   -1.4416   21.5592 C   0  0  0  0  0  0  0  0  0  0  0  0
    6.8894   -2.5036   21.1541 O   0  0  0  0  0  0  0  0  0  0  0  0
    6.8455   -0.2378   21.0957 N   0  0  0  0  0  0  0  0  0  0  0  0
    5.9244   -0.1349   20.0349 C   0  0  0  0  0  0  0  0  0  0  0  0
    6.1542   -0.7551   18.8333 C   0  0  0  0  0  0  0  0  0  0  0  0
    5.3643   -0.6114   17.7429 N   0  0  0  0  0  0  0  0  0  0  0  0
    4.3018    0.1487   17.8642 C   0  0  0  0  0  0  0  0  0  0  0  0
    3.9289    0.8174   19.0645 C   0  0  0  0  0  0  0  0  0  0  0  0
    2.7549    1.6068   19.1682 C   0  0  0  0  0  0  0  0  0  0  0  0
    2.4112    2.1870   20.3596 C   0  0  0  0  0  0  0  0  0  0  0  0
    3.2314    2.0233   21.5009 C   0  0  0  0  0  0  0  0  0  0  0  0
    4.3848    1.2842   21.4202 C   0  0  0  0  0  0  0  0  0  0  0  0
    4.7584    0.6693   20.1963 C   0  0  0  0  0  0  0  0  0  0  0  0
    9.7435   -1.3298   21.7203 C   0  0  0  0  0  0  0  0  0  0  0  0
   11.9682    1.5676   23.8617 N   0  0  0  0  0  0  0  0  0  0  0  0
   12.2998    2.8701   23.2962 C   0  0  0  0  0  0  0  0  0  0  0  0
   11.1952    3.4267   22.3722 C   0  0  0  0  0  0  0  0  0  0  0  0
    9.8327    3.5350   23.0167 C   0  0  0  0  0  0  0  0  0  0  0  0
    8.8710    2.5220   22.9327 C   0  0  0  0  0  0  0  0  0  0  0  0
    7.6502    2.6383   23.5877 C   0  0  0  0  0  0  0  0  0  0  0  0
    7.3488    3.7837   24.3240 C   0  0  0  0  0  0  0  0  0  0  0  0
    6.0470    3.9129   25.0574 C   0  0  0  0  0  0  0  0  0  0  0  0
    6.2521    3.8786   26.4076 F   0  0  0  0  0  0  0  0  0  0  0  0
    5.4517    5.1147   24.7933 F   0  0  0  0  0  0  0  0  0  0  0  0
    8.2878    4.8101   24.3889 C   0  0  0  0  0  0  0  0  0  0  0  0
    9.5033    4.6814   23.7350 C   0  0  0  0  0  0  0  0  0  0  0  0
  1  2  2  0
  2  3  1  0
  4  3  1  1
  4  5  1  0
  5  6  1  0
  6  7  2  0
  7  8  1  0
  8  9  2  0
  9 10  1  0
  9 11  1  0
 11 12  2  0
 12 13  1  0
 13 14  1  6
 14 15  2  0
 14 16  1  0
 16 17  1  0
 17 18  2  0
 18 19  1  0
 19 20  2  0
 20 21  1  0
 21 22  2  0
 22 23  1  0
 23 24  2  0
 24 25  1  0
 25 26  2  0
 13 27  1  0
  2 28  1  0
 28 29  1  0
 29 30  1  0
 30 31  1  0
 31 32  2  0
 32 33  1  0
 33 34  2  0
 34 35  1  0
 35 36  1  0
 35 37  1  0
 34 38  1  0
 38 39  2  0
 27  4  1  0
 39 31  1  0
 12  6  1  0
 26 17  1  0
 26 21  1  0
M  CHG  1   4   1
M  END
>  <cnnaffinities>  (41) 
[6.5702, 6.00054]

>  <score>  (41) 
6.5702

>  <index>  (41) 
19

>  <Smiles>  (41) 
O=C(C([N@+]1(C(c2c(c(c(Cl)c(c2[C@](C(=O)N(c2c(nc(c3c(c(c(c(c23)[H])[H])[H])[H])[H])[H])[H])(C1([H])[H])[H])[H])[H])[H])([H])[H])[H])([H])[H])N(C(C(c1c(c(c(C(F)(F)[H])c(c1[H])[H])[H])[H])([H])[H])([H])[H])[H]

>  <h>  (41) 
<NA>

>  <Training>  (41) 
True

>  <Success>  (41) 
True

>  <enamine_searched>  (41) 
False

>  <enamine_id>  (41) 
nan

$$$$

     RDKit          3D

 37 41  0  0  0  0  0  0  0  0999 V2000
    6.8592   -1.5115   23.1420 N   0  0  0  0  0  0  0  0  0  0  0  0
    6.0367   -0.5703   22.4813 C   0  0  0  0  0  0  0  0  0  0  0  0
    4.7863   -0.6458   22.5518 O   0  0  0  0  0  0  0  0  0  0  0  0
   10.7606   -3.8321   25.5997 C   0  0  0  0  0  0  0  0  0  0  0  0
    9.7374   -4.4733   25.2926 O   0  0  0  0  0  0  0  0  0  0  0  0
   11.2257   -2.6372   24.9905 N   0  0  0  0  0  0  0  0  0  0  0  0
   12.4631   -1.9904   25.3627 C   0  0  0  0  0  0  0  0  0  0  0  0
   13.0664   -1.1765   24.2956 C   0  0  0  0  0  0  0  0  0  0  0  0
   12.6021   -1.4535   22.8974 C   0  0  0  0  0  0  0  0  0  0  0  0
   11.1031   -1.4443   22.8687 C   0  0  0  0  0  0  0  0  0  0  0  0
   10.3411   -0.8837   21.8915 C   0  0  0  0  0  0  0  0  0  0  0  0
    8.9490   -0.9211   21.9910 C   0  0  0  0  0  0  0  0  0  0  0  0
    8.2898   -1.5139   23.0594 C   0  0  0  0  0  0  0  0  0  0  0  0
    9.0739   -2.0806   24.0438 C   0  0  0  0  0  0  0  0  0  0  0  0
   10.4456   -2.0472   23.9528 C   0  0  0  0  0  0  0  0  0  0  0  0
   10.7551   -4.5461   27.9819 C   0  0  0  0  0  0  0  0  0  0  0  0
   11.5684   -4.3816   26.7200 C   0  0  0  0  0  0  0  0  0  0  0  0
    6.1951   -2.4633   23.9461 N   0  0  0  0  0  0  0  0  0  0  0  0
    5.8282   -1.9590   25.2788 C   0  0  0  0  0  0  0  0  0  0  0  0
    5.9011   -3.7745   23.5820 C   0  0  0  0  0  0  0  0  0  0  0  0
    5.8276   -4.2572   22.3040 C   0  0  0  0  0  0  0  0  0  0  0  0
    5.5576   -5.5962   22.0266 C   0  0  0  0  0  0  0  0  0  0  0  0
    5.3528   -6.4886   23.0555 C   0  0  0  0  0  0  0  0  0  0  0  0
    5.4198   -6.0285   24.3635 C   0  0  0  0  0  0  0  0  0  0  0  0
    5.1571   -7.1740   25.6586 Cl  0  0  0  0  0  0  0  0  0  0  0  0
    5.6886   -4.7005   24.6043 C   0  0  0  0  0  0  0  0  0  0  0  0
    6.6623    0.5174   21.7005 C   0  0  0  0  0  0  0  0  0  0  0  0
    6.1187    0.5709   20.3145 C   0  0  0  0  0  0  0  0  0  0  0  0
    6.6811   -0.1357   19.2534 C   0  0  0  0  0  0  0  0  0  0  0  0
    6.1491   -0.0435   18.0224 N   0  0  0  0  0  0  0  0  0  0  0  0
    5.0767    0.7079   17.7323 C   0  0  0  0  0  0  0  0  0  0  0  0
    4.5052    1.4177   18.7789 C   0  0  0  0  0  0  0  0  0  0  0  0
    3.4016    2.2008   18.5276 C   0  0  0  0  0  0  0  0  0  0  0  0
    2.8059    2.9169   19.5376 C   0  0  0  0  0  0  0  0  0  0  0  0
    3.3020    2.8672   20.8311 C   0  0  0  0  0  0  0  0  0  0  0  0
    4.4182    2.0672   21.0542 C   0  0  0  0  0  0  0  0  0  0  0  0
    5.0248    1.3459   20.0566 C   0  0  0  0  0  0  0  0  0  0  0  0
 16 17  1  0
 17  4  1  0
  4  5  2  0
  4  6  1  0
  6  7  1  0
  7  8  1  0
  8  9  1  0
  9 10  1  0
 10 11  2  0
 11 12  1  0
 12 13  2  0
 13  1  1  0
  1  2  1  0
  2  3  2  0
  2 27  1  0
 27 28  1  0
 28 29  2  0
 29 30  1  0
 30 31  2  0
 31 32  1  0
 32 33  2  0
 33 34  1  0
 34 35  2  0
 35 36  1  0
 36 37  2  0
  1 18  1  0
 18 19  1  0
 18 20  1  0
 20 21  2  0
 21 22  1  0
 22 23  2  0
 23 24  1  0
 24 25  1  0
 24 26  2  0
 13 14  1  0
 14 15  2  0
 15  6  1  0
 15 10  1  0
 37 28  1  0
 26 20  1  0
 37 32  1  0
M  END
>  <minimizedAffinity>  (42) 
-9.41409

>  <CNNscore>  (42) 
0.8059092760

>  <CNNaffinity>  (42) 
7.5810880661

>  <CNN_VS>  (42) 
6.1096692085

>  <CNNaffinity_variance>  (42) 
0.0664252117

$$$$

     RDKit          3D

 35 40  0  0  0  0  0  0  0  0999 V2000
    7.1156   -1.2421   24.2034 C   0  0  0  0  0  0  0  0  0  0  0  0
    7.9494   -1.1381   22.9148 C   0  0  1  0  0  0  0  0  0  0  0  0
    7.1179   -1.5360   21.6729 C   0  0  0  0  0  0  0  0  0  0  0  0
    6.8229   -0.2733   21.0342 N   0  0  0  0  0  0  0  0  0  0  0  0
    5.8977   -0.1265   19.9763 C   0  0  0  0  0  0  0  0  0  0  0  0
    6.0861   -0.7710   18.7812 C   0  0  0  0  0  0  0  0  0  0  0  0
    5.2804   -0.6325   17.7032 N   0  0  0  0  0  0  0  0  0  0  0  0
    4.2270    0.1407   17.8389 C   0  0  0  0  0  0  0  0  0  0  0  0
    3.8825    0.8223   19.0406 C   0  0  0  0  0  0  0  0  0  0  0  0
    2.7061    1.6074   19.1582 C   0  0  0  0  0  0  0  0  0  0  0  0
    2.3681    2.1816   20.3546 C   0  0  0  0  0  0  0  0  0  0  0  0
    3.2082    2.0327   21.4782 C   0  0  0  0  0  0  0  0  0  0  0  0
    4.3725    1.3094   21.3790 C   0  0  0  0  0  0  0  0  0  0  0  0
    4.7368    0.6832   20.1556 C   0  0  0  0  0  0  0  0  0  0  0  0
    7.6795    0.7468   21.3839 C   0  0  0  0  0  0  0  0  0  0  0  0
    7.7681    1.8013   20.7868 O   0  0  0  0  0  0  0  0  0  0  0  0
    8.5271    0.2872   22.5890 C   0  0  1  0  0  0  0  0  0  0  0  0
    8.3847    1.2623   23.7915 C   0  0  0  0  0  0  0  0  0  0  0  0
    9.0060    2.5560   23.5532 N   0  0  0  0  0  0  0  0  0  0  0  0
    8.3457    3.7879   23.9935 C   0  0  0  0  0  0  0  0  0  0  0  0
    7.4867    4.4190   22.9284 C   0  0  0  0  0  0  0  0  0  0  0  0
    7.8744    5.4767   22.0819 C   0  0  0  0  0  0  0  0  0  0  0  0
    6.9518    5.7471   21.1682 N   0  0  0  0  0  0  0  0  0  0  0  0
    5.9632    4.8801   21.4157 N   0  0  0  0  0  0  0  0  0  0  0  0
    4.8106    4.8541   20.5403 C   0  0  0  0  0  0  0  0  0  0  0  0
    6.2317    4.0681   22.4689 C   0  0  0  0  0  0  0  0  0  0  0  0
   10.2301    2.6811   22.9458 C   0  0  0  0  0  0  0  0  0  0  0  0
   10.8276    3.7483   22.8797 O   0  0  0  0  0  0  0  0  0  0  0  0
   10.8084    1.4065   22.4043 C   0  0  0  0  0  0  0  0  0  0  0  0
   12.1831    1.3550   22.1605 C   0  0  0  0  0  0  0  0  0  0  0  0
   12.7848    0.1874   21.7277 C   0  0  0  0  0  0  0  0  0  0  0  0
   11.9653   -0.9016   21.4598 C   0  0  0  0  0  0  0  0  0  0  0  0
   12.5284   -2.0380   21.0204 F   0  0  0  0  0  0  0  0  0  0  0  0
   10.5936   -0.8538   21.6165 C   0  0  0  0  0  0  0  0  0  0  0  0
   10.0010    0.2770   22.1891 C   0  0  0  0  0  0  0  0  0  0  0  0
  2  1  1  1
  2  3  1  0
  3  4  1  0
  4  5  1  0
  5  6  2  0
  6  7  1  0
  7  8  2  0
  8  9  1  0
  9 10  2  0
 10 11  1  0
 11 12  2  0
 12 13  1  0
 13 14  2  0
  4 15  1  0
 15 16  2  0
 15 17  1  0
 17 18  1  1
 18 19  1  0
 19 20  1  0
 20 21  1  0
 21 22  1  0
 22 23  2  0
 23 24  1  0
 24 25  1  0
 24 26  1  0
 19 27  1  0
 27 28  2  0
 27 29  1  0
 29 30  2  0
 30 31  1  0
 31 32  2  0
 32 33  1  0
 32 34  1  0
 34 35  2  0
 17  2  1  0
 26 21  2  0
 35 29  1  0
 14  5  1  0
 35 17  1  0
 14  9  1  0
M  END
>  <cnnaffinities>  (43) 
[6.12738, 6.23737, 6.06132, 6.14128]

>  <score>  (43) 
6.12738

>  <index>  (43) 
21

>  <Smiles>  (43) 
C([C@]1(C(N(c2c(nc(c3c(c(c(c(c23)[H])[H])[H])[H])[H])[H])C(=O)[C@]21C(N(C(c1c(nn(C([H])([H])[H])c1[H])[H])([H])[H])C(=O)c1c(c(c(F)c(c21)[H])[H])[H])([H])[H])([H])[H])[H])([H])([H])[H]

>  <h>  (43) 
<NA>

>  <Training>  (43) 
True

>  <Success>  (43) 
True

>  <enamine_searched>  (43) 
False

>  <enamine_id>  (43) 
nan

$$$$

     RDKit          3D

 24 27  0  0  0  0  0  0  0  0999 V2000
    5.3542   -1.8938   22.1519 O   0  0  0  0  0  0  0  0  0  0  0  0
    6.5089   -1.5108   22.0450 C   0  0  0  0  0  0  0  0  0  0  0  0
    6.8944   -0.3808   21.0808 C   0  0  0  0  0  0  0  0  0  0  0  0
    5.8806   -0.1827   19.9819 C   0  0  0  0  0  0  0  0  0  0  0  0
    6.0507   -0.8050   18.7712 C   0  0  0  0  0  0  0  0  0  0  0  0
    5.2447   -0.6591   17.6883 N   0  0  0  0  0  0  0  0  0  0  0  0
    4.1844    0.0984   17.8359 C   0  0  0  0  0  0  0  0  0  0  0  0
    3.8315    0.7483   19.0490 C   0  0  0  0  0  0  0  0  0  0  0  0
    2.6521    1.5289   19.1677 C   0  0  0  0  0  0  0  0  0  0  0  0
    2.3328    2.1302   20.3528 C   0  0  0  0  0  0  0  0  0  0  0  0
    3.1984    2.0033   21.4616 C   0  0  0  0  0  0  0  0  0  0  0  0
    4.3531    1.2647   21.3671 C   0  0  0  0  0  0  0  0  0  0  0  0
    4.7001    0.6077   20.1555 C   0  0  0  0  0  0  0  0  0  0  0  0
    7.5078   -2.1050   22.7585 N   0  0  0  0  0  0  0  0  0  0  0  0
    8.8494   -1.5504   22.8762 C   0  0  0  0  0  0  0  0  0  0  0  0
    9.4847   -1.9710   24.1979 C   0  0  0  0  0  0  0  0  0  0  0  0
    9.4416   -3.4707   24.3493 C   0  0  0  0  0  0  0  0  0  0  0  0
   10.4504   -4.1919   24.9818 C   0  0  0  0  0  0  0  0  0  0  0  0
   11.9040   -3.3912   25.5235 Cl  0  0  0  0  0  0  0  0  0  0  0  0
   10.3660   -5.5594   25.1863 C   0  0  0  0  0  0  0  0  0  0  0  0
    9.2655   -6.2512   24.6853 C   0  0  0  0  0  0  0  0  0  0  0  0
    8.2372   -5.5519   24.0571 C   0  0  0  0  0  0  0  0  0  0  0  0
    8.3122   -4.1657   23.9073 C   0  0  0  0  0  0  0  0  0  0  0  0
    7.1386   -3.3843   23.3614 C   0  0  0  0  0  0  0  0  0  0  0  0
  1  2  2  0
  2  3  1  0
  3  4  1  0
  4  5  2  0
  5  6  1  0
  6  7  2  0
  7  8  1  0
  8  9  2  0
  9 10  1  0
 10 11  2  0
 11 12  1  0
 12 13  2  0
  2 14  1  0
 14 15  1  0
 15 16  1  0
 16 17  1  0
 17 18  2  0
 18 19  1  0
 18 20  1  0
 20 21  2  0
 21 22  1  0
 22 23  2  0
 23 24  1  0
 13  4  1  0
 24 14  1  0
 13  8  1  0
 23 17  1  0
M  END
>  <cnnaffinities>  (44) 
[5.48691, 5.32706, 5.79713, 5.62633, 5.31709]

>  <score>  (44) 
5.48691

>  <index>  (44) 
22

>  <Smiles>  (44) 
O=C(C(c1c(nc(c2c(c(c(c(c12)[H])[H])[H])[H])[H])[H])([H])[H])N1C(C(c2c(Cl)c(c(c(c2C1([H])[H])[H])[H])[H])([H])[H])([H])[H]

>  <h>  (44) 
<NA>

>  <Training>  (44) 
True

>  <Success>  (44) 
True

>  <enamine_searched>  (44) 
False

>  <enamine_id>  (44) 
nan

$$$$

     RDKit          3D

 37 42  0  0  0  0  0  0  0  0999 V2000
    2.3920    5.8024   22.1723 C   0  0  0  0  0  0  0  0  0  0  0  0
    3.8364    6.2684   22.2625 C   0  0  1  0  0  0  0  0  0  0  0  0
    4.8047    5.0846   22.2988 C   0  0  0  0  0  0  0  0  0  0  0  0
    6.2483    5.5506   22.3157 N   0  0  1  0  0  0  0  0  0  0  0  0
    7.2317    4.4181   22.2584 C   0  0  0  0  0  0  0  0  0  0  0  0
    7.4353    3.7321   23.6157 C   0  0  0  0  0  0  0  0  0  0  0  0
    8.3763    2.6252   23.5222 N   0  0  0  0  0  0  0  0  0  0  0  0
    7.9451    1.2534   23.7012 C   0  0  0  0  0  0  0  0  0  0  0  0
    8.4829    0.3218   22.5864 C   0  0  2  0  0  0  0  0  0  0  0  0
    7.7923    0.6486   21.2424 C   0  0  0  0  0  0  0  0  0  0  0  0
    8.0079    1.5945   20.5105 O   0  0  0  0  0  0  0  0  0  0  0  0
    6.8511   -0.3215   20.9830 N   0  0  0  0  0  0  0  0  0  0  0  0
    5.8899   -0.1552   19.9553 C   0  0  0  0  0  0  0  0  0  0  0  0
    6.0619   -0.8054   18.7602 C   0  0  0  0  0  0  0  0  0  0  0  0
    5.2374   -0.6694   17.6956 N   0  0  0  0  0  0  0  0  0  0  0  0
    4.1822    0.0941   17.8432 C   0  0  0  0  0  0  0  0  0  0  0  0
    3.8333    0.7578   19.0554 C   0  0  0  0  0  0  0  0  0  0  0  0
    2.6440    1.5258   19.1854 C   0  0  0  0  0  0  0  0  0  0  0  0
    2.3295    2.1297   20.3683 C   0  0  0  0  0  0  0  0  0  0  0  0
    3.2011    2.0176   21.4721 C   0  0  0  0  0  0  0  0  0  0  0  0
    4.3698    1.2984   21.3680 C   0  0  0  0  0  0  0  0  0  0  0  0
    4.7154    0.6414   20.1516 C   0  0  0  0  0  0  0  0  0  0  0  0
    6.7554   -1.3451   22.0010 C   0  0  0  0  0  0  0  0  0  0  0  0
    8.0470   -1.1634   22.8247 C   0  0  2  0  0  0  0  0  0  0  0  0
    7.8696   -1.6168   24.2793 C   0  0  0  0  0  0  0  0  0  0  0  0
    9.9742    0.5604   22.4602 C   0  0  0  0  0  0  0  0  0  0  0  0
   10.7871   -0.3794   21.8179 C   0  0  0  0  0  0  0  0  0  0  0  0
   12.1463   -0.1548   21.7095 C   0  0  0  0  0  0  0  0  0  0  0  0
   13.1213   -1.3715   20.9378 Cl  0  0  0  0  0  0  0  0  0  0  0  0
   12.7311    1.0256   22.1651 C   0  0  0  0  0  0  0  0  0  0  0  0
   11.9210    1.9895   22.7325 C   0  0  0  0  0  0  0  0  0  0  0  0
   10.5497    1.7754   22.8610 C   0  0  0  0  0  0  0  0  0  0  0  0
    9.6982    2.9154   23.3496 C   0  0  0  0  0  0  0  0  0  0  0  0
   10.1528    4.0378   23.5321 O   0  0  0  0  0  0  0  0  0  0  0  0
    6.4614    6.5253   21.1817 C   0  0  0  0  0  0  0  0  0  0  0  0
    5.4126    7.6275   21.2051 C   0  0  0  0  0  0  0  0  0  0  0  0
    4.1018    7.1082   21.1516 O   0  0  0  0  0  0  0  0  0  0  0  0
  2  1  1  6
  2  3  1  0
  3  4  1  0
  4  5  1  6
  5  6  1  0
  6  7  1  0
  7  8  1  0
  9  8  1  1
  9 10  1  0
 10 11  2  0
 10 12  1  0
 12 13  1  0
 13 14  2  0
 14 15  1  0
 15 16  2  0
 16 17  1  0
 17 18  2  0
 18 19  1  0
 19 20  2  0
 20 21  1  0
 21 22  2  0
 12 23  1  0
 23 24  1  0
 24 25  1  1
  9 26  1  0
 26 27  2  0
 27 28  1  0
 28 29  1  0
 28 30  2  0
 30 31  1  0
 31 32  2  0
 32 33  1  0
 33 34  2  0
  4 35  1  0
 35 36  1  0
 36 37  1  0
 37  2  1  0
 33  7  1  0
 24  9  1  0
 32 26  1  0
 22 13  1  0
 22 17  1  0
M  CHG  1   4   1
M  END
>  <cnnaffinities>  (45) 
[6.52484, 6.5757, 6.4464]

>  <score>  (45) 
6.52484

>  <index>  (45) 
23

>  <Smiles>  (45) 
C([C@]1(C([N@@+](C(C(N2C([C@@]3(C(=O)N(c4c(nc(c5c(c(c(c(c45)[H])[H])[H])[H])[H])[H])C([C@@]3(C([H])([H])[H])[H])([H])[H])c3c(c(Cl)c(c(c3C2=O)[H])[H])[H])([H])[H])([H])[H])([H])[H])(C(C(O1)([H])[H])([H])[H])[H])([H])[H])[H])([H])([H])[H]

>  <h>  (45) 
<NA>

>  <Training>  (45) 
True

>  <Success>  (45) 
True

>  <enamine_searched>  (45) 
False

>  <enamine_id>  (45) 
nan

$$$$

     RDKit          3D

 36 41  0  0  0  0  0  0  0  0999 V2000
   -8.2810   -3.6238  -23.9521 C   0  0  0  0  0  0  0  0  0  0  0  0
   -8.4554   -2.8843  -22.6296 C   0  0  1  0  0  0  0  0  0  0  0  0
   -7.1203   -2.4434  -21.9937 C   0  0  0  0  0  0  0  0  0  0  0  0
   -7.5047   -1.2968  -21.1943 N   0  0  0  0  0  0  0  0  0  0  0  0
   -6.6953   -0.7444  -20.1646 C   0  0  0  0  0  0  0  0  0  0  0  0
   -6.9813   -1.0135  -18.8493 C   0  0  0  0  0  0  0  0  0  0  0  0
   -6.2609   -0.5537  -17.7962 N   0  0  0  0  0  0  0  0  0  0  0  0
   -5.2230    0.2069  -18.0645 C   0  0  0  0  0  0  0  0  0  0  0  0
   -4.7995    0.5542  -19.3794 C   0  0  0  0  0  0  0  0  0  0  0  0
   -3.6773    1.3930  -19.6250 C   0  0  0  0  0  0  0  0  0  0  0  0
   -3.3041    1.7031  -20.9062 C   0  0  0  0  0  0  0  0  0  0  0  0
   -4.0285    1.1862  -22.0023 C   0  0  0  0  0  0  0  0  0  0  0  0
   -5.1238    0.3793  -21.7926 C   0  0  0  0  0  0  0  0  0  0  0  0
   -5.5439    0.0475  -20.4741 C   0  0  0  0  0  0  0  0  0  0  0  0
   -8.7247   -0.7546  -21.5447 C   0  0  0  0  0  0  0  0  0  0  0  0
   -9.2028    0.2438  -21.0489 O   0  0  0  0  0  0  0  0  0  0  0  0
   -9.3525   -1.6098  -22.6809 C   0  0  1  0  0  0  0  0  0  0  0  0
   -9.1872   -0.8599  -24.0383 C   0  0  0  0  0  0  0  0  0  0  0  0
  -10.0572    0.2980  -24.1654 N   0  0  0  0  0  0  0  0  0  0  0  0
   -9.5276    1.4789  -24.8294 C   0  0  0  0  0  0  0  0  0  0  0  0
   -8.3536    2.0253  -24.0103 C   0  0  0  0  0  0  0  0  0  0  0  0
   -7.1952    1.7175  -24.2592 O   0  0  0  0  0  0  0  0  0  0  0  0
   -8.6778    2.8338  -22.9585 N   0  0  0  0  0  0  0  0  0  0  0  0
   -7.6371    3.1425  -21.9876 C   0  0  0  0  0  0  0  0  0  0  0  0
   -6.6078    4.1606  -22.4130 C   0  0  0  0  0  0  0  0  0  0  0  0
   -6.4734    5.4112  -21.5868 C   0  0  0  0  0  0  0  0  0  0  0  0
   -5.4620    4.3086  -21.4561 C   0  0  0  0  0  0  0  0  0  0  0  0
  -11.3384    0.3171  -23.7047 C   0  0  0  0  0  0  0  0  0  0  0  0
  -12.1022    1.2475  -23.9241 O   0  0  0  0  0  0  0  0  0  0  0  0
  -11.7681   -0.8744  -22.9056 C   0  0  0  0  0  0  0  0  0  0  0  0
  -13.1278   -0.9597  -22.6068 C   0  0  0  0  0  0  0  0  0  0  0  0
  -13.6153   -1.9952  -21.8433 C   0  0  0  0  0  0  0  0  0  0  0  0
  -12.7098   -2.9426  -21.3852 C   0  0  0  0  0  0  0  0  0  0  0  0
  -13.1843   -3.8971  -20.5672 F   0  0  0  0  0  0  0  0  0  0  0  0
  -11.3594   -2.9000  -21.6911 C   0  0  0  0  0  0  0  0  0  0  0  0
  -10.8482   -1.8313  -22.4468 C   0  0  0  0  0  0  0  0  0  0  0  0
  2  1  1  6
  2  3  1  0
  3  4  1  0
  4  5  1  0
  5  6  2  0
  6  7  1  0
  7  8  2  0
  8  9  1  0
  9 10  2  0
 10 11  1  0
 11 12  2  0
 12 13  1  0
 13 14  2  0
  4 15  1  0
 15 16  2  0
 15 17  1  0
 17 18  1  6
 18 19  1  0
 19 20  1  0
 20 21  1  0
 21 22  2  0
 21 23  1  0
 23 24  1  0
 24 25  1  0
 25 26  1  0
 26 27  1  0
 19 28  1  0
 28 29  2  0
 28 30  1  0
 30 31  2  0
 31 32  1  0
 32 33  2  0
 33 34  1  0
 33 35  1  0
 35 36  2  0
 17  2  1  0
 27 25  1  0
 36 30  1  0
 14  5  1  0
 36 17  1  0
 14  9  1  0
M  END
>  <cnnaffinities>  (46) 
[6.69656]

>  <score>  (46) 
6.69656

>  <index>  (46) 
21

>  <Smiles>  (46) 
C([C@]1(C(N(c2c(nc(c3c(c(c(c(c23)[H])[H])[H])[H])[H])[H])C(=O)[C@]21C(N(C(C(=O)N(C(C1(C(C1([H])[H])([H])[H])[H])([H])[H])[H])([H])[H])C(=O)c1c(c(c(F)c(c21)[H])[H])[H])([H])[H])([H])[H])[H])([H])([H])[H]

>  <h>  (46) 
<NA>

>  <Training>  (46) 
True

>  <Success>  (46) 
True

>  <enamine_searched>  (46) 
False

>  <enamine_id>  (46) 
nan

$$$$

     RDKit          3D

 26 30  0  0  0  0  0  0  0  0999 V2000
   -5.1987   -4.3748  -20.6464 O   0  0  0  0  0  0  0  0  0  0  0  0
   -5.7696   -3.6512  -21.5004 C   0  0  0  0  0  0  0  0  0  0  0  0
   -6.2475   -4.1088  -22.7613 N   0  0  0  0  0  0  0  0  0  0  0  0
   -7.2590   -3.1531  -23.2300 C   0  0  2  0  0  0  0  0  0  0  0  0
   -8.5285   -3.5235  -22.5137 C   0  0  0  0  0  0  0  0  0  0  0  0
   -9.7531   -2.9393  -23.1379 C   0  0  0  0  0  0  0  0  0  0  0  0
   -9.7384   -3.0267  -24.5444 O   0  0  0  0  0  0  0  0  0  0  0  0
   -8.6014   -3.0030  -25.3107 C   0  0  0  0  0  0  0  0  0  0  0  0
   -8.7032   -2.9179  -26.6862 C   0  0  0  0  0  0  0  0  0  0  0  0
   -7.5424   -2.8954  -27.4498 C   0  0  0  0  0  0  0  0  0  0  0  0
   -6.3732   -2.9576  -26.8156 N   0  0  0  0  0  0  0  0  0  0  0  0
   -6.2585   -3.0408  -25.4729 C   0  0  0  0  0  0  0  0  0  0  0  0
   -7.3739   -3.0663  -24.6751 C   0  0  0  0  0  0  0  0  0  0  0  0
   -6.7002   -1.9032  -22.6013 C   0  0  0  0  0  0  0  0  0  0  0  0
   -6.8215   -0.7743  -23.1116 O   0  0  0  0  0  0  0  0  0  0  0  0
   -6.0506   -2.2551  -21.3870 N   0  0  0  0  0  0  0  0  0  0  0  0
   -5.7801   -1.3499  -20.3326 C   0  0  0  0  0  0  0  0  0  0  0  0
   -6.4833   -1.4036  -19.1223 C   0  0  0  0  0  0  0  0  0  0  0  0
   -6.2760   -0.5846  -18.1023 N   0  0  0  0  0  0  0  0  0  0  0  0
   -5.3420    0.3707  -18.1948 C   0  0  0  0  0  0  0  0  0  0  0  0
   -4.5922    0.5091  -19.3470 C   0  0  0  0  0  0  0  0  0  0  0  0
   -3.6248    1.4830  -19.4702 C   0  0  0  0  0  0  0  0  0  0  0  0
   -2.8890    1.6120  -20.6129 C   0  0  0  0  0  0  0  0  0  0  0  0
   -3.0835    0.7776  -21.6849 C   0  0  0  0  0  0  0  0  0  0  0  0
   -4.0590   -0.2050  -21.5618 C   0  0  0  0  0  0  0  0  0  0  0  0
   -4.8198   -0.3619  -20.4188 C   0  0  0  0  0  0  0  0  0  0  0  0
  1  2  2  0
  2  3  1  0
  4  3  1  0
  4  5  1  1
  5  6  1  0
  6  7  1  0
  7  8  1  0
  8  9  2  0
  9 10  1  0
 10 11  2  0
 11 12  1  0
 12 13  2  0
  4 14  1  0
 14 15  2  0
 14 16  1  0
 16 17  1  0
 17 18  2  0
 18 19  1  0
 19 20  2  0
 20 21  1  0
 21 22  2  0
 22 23  1  0
 23 24  2  0
 24 25  1  0
 25 26  2  0
 16  2  1  0
 26 17  1  0
 13  4  1  0
 26 21  1  0
 13  8  1  0
M  END
>  <minimizedAffinity>  (47) 
-7.56286

>  <CNNscore>  (47) 
0.6859658957

>  <CNNaffinity>  (47) 
5.6039547920

>  <CNN_VS>  (47) 
3.8441219330

>  <CNNaffinity_variance>  (47) 
0.2837896943

$$$$

     RDKit          3D

 38 43  0  0  0  0  0  0  0  0999 V2000
    6.0589    4.1252   21.6467 C   0  0  0  0  0  0  0  0  0  0  0  0
    7.5184    4.1881   21.4742 N   0  0  0  0  0  0  0  0  0  0  0  0
    8.2370    4.8352   22.5990 C   0  0  0  0  0  0  0  0  0  0  0  0
    8.4357    3.8999   23.7941 C   0  0  0  0  0  0  0  0  0  0  0  0
    9.0737    2.6507   23.3852 N   0  0  0  0  0  0  0  0  0  0  0  0
    8.3941    1.3814   23.5860 C   0  0  0  0  0  0  0  0  0  0  0  0
    8.7097    0.3591   22.4586 C   0  0  2  0  0  0  0  0  0  0  0  0
    7.9542    0.7549   21.1780 C   0  0  0  0  0  0  0  0  0  0  0  0
    8.1749    1.7695   20.5329 O   0  0  0  0  0  0  0  0  0  0  0  0
    6.9607   -0.1516   20.9074 N   0  0  0  0  0  0  0  0  0  0  0  0
    6.0083    0.0280   19.8564 C   0  0  0  0  0  0  0  0  0  0  0  0
    6.2351   -0.5324   18.6249 C   0  0  0  0  0  0  0  0  0  0  0  0
    5.3991   -0.4205   17.5626 N   0  0  0  0  0  0  0  0  0  0  0  0
    4.2970    0.2735   17.7201 C   0  0  0  0  0  0  0  0  0  0  0  0
    3.9240    0.8934   18.9484 C   0  0  0  0  0  0  0  0  0  0  0  0
    2.7279    1.6503   19.0824 C   0  0  0  0  0  0  0  0  0  0  0  0
    2.3707    2.1829   20.2903 C   0  0  0  0  0  0  0  0  0  0  0  0
    3.2048    2.0065   21.4154 C   0  0  0  0  0  0  0  0  0  0  0  0
    4.3823    1.3047   21.3006 C   0  0  0  0  0  0  0  0  0  0  0  0
    4.7838    0.7403   20.0613 C   0  0  0  0  0  0  0  0  0  0  0  0
    6.7565   -1.0968   21.9924 C   0  0  0  0  0  0  0  0  0  0  0  0
    8.1001   -1.0425   22.7379 C   0  0  2  0  0  0  0  0  0  0  0  0
    8.0142   -1.4631   24.2052 C   0  0  0  0  0  0  0  0  0  0  0  0
    7.6463   -2.8180   24.3432 O   0  0  0  0  0  0  0  0  0  0  0  0
    8.7085   -3.7546   24.4043 C   0  0  0  0  0  0  0  0  0  0  0  0
    8.1107   -5.0841   23.9882 C   0  0  0  0  0  0  0  0  0  0  0  0
    8.7809   -6.4085   24.3777 C   0  0  0  0  0  0  0  0  0  0  0  0
    7.5964   -6.8660   25.0404 O   0  0  0  0  0  0  0  0  0  0  0  0
    6.9593   -5.5966   24.8691 C   0  0  0  0  0  0  0  0  0  0  0  0
   10.2142    0.3481   22.2212 C   0  0  0  0  0  0  0  0  0  0  0  0
   10.8182   -0.7255   21.5542 C   0  0  0  0  0  0  0  0  0  0  0  0
   12.1892   -0.7644   21.3983 C   0  0  0  0  0  0  0  0  0  0  0  0
   12.8853   -2.1001   20.5337 Cl  0  0  0  0  0  0  0  0  0  0  0  0
   13.0042    0.2754   21.8377 C   0  0  0  0  0  0  0  0  0  0  0  0
   12.4107    1.3782   22.4173 C   0  0  0  0  0  0  0  0  0  0  0  0
   11.0238    1.4335   22.5850 C   0  0  0  0  0  0  0  0  0  0  0  0
   10.4132    2.7043   23.1039 C   0  0  0  0  0  0  0  0  0  0  0  0
   11.0724    3.7276   23.2513 O   0  0  0  0  0  0  0  0  0  0  0  0
  1  2  1  0
  2  3  1  0
  3  4  1  0
  4  5  1  0
  5  6  1  0
  7  6  1  1
  7  8  1  0
  8  9  2  0
  8 10  1  0
 10 11  1  0
 11 12  2  0
 12 13  1  0
 13 14  2  0
 14 15  1  0
 15 16  2  0
 16 17  1  0
 17 18  2  0
 18 19  1  0
 19 20  2  0
 10 21  1  0
 21 22  1  0
 22 23  1  1
 23 24  1  0
 24 25  1  0
 25 26  1  0
 26 27  1  0
 27 28  1  0
 28 29  1  0
  7 30  1  0
 30 31  2  0
 31 32  1  0
 32 33  1  0
 32 34  2  0
 34 35  1  0
 35 36  2  0
 36 37  1  0
 37 38  2  0
 37  5  1  0
 22  7  1  0
 29 26  1  0
 36 30  1  0
 20 11  1  0
 20 15  1  0
M  CHG  1   2   1
M  END
>  <cnnaffinities>  (48) 
[6.41269]

>  <score>  (48) 
6.41269

>  <index>  (48) 
24

>  <Smiles>  (48) 
C([N+](C(C(N1C([C@@]2(C(=O)N(c3c(nc(c4c(c(c(c(c34)[H])[H])[H])[H])[H])[H])C([C@@]2(C(OC(C2(C(OC2([H])[H])([H])[H])[H])([H])[H])([H])[H])[H])([H])[H])c2c(c(Cl)c(c(c2C1=O)[H])[H])[H])([H])[H])([H])[H])([H])[H])([H])[H])([H])([H])[H]

>  <h>  (48) 
<NA>

>  <Training>  (48) 
True

>  <Success>  (48) 
True

>  <enamine_searched>  (48) 
False

>  <enamine_id>  (48) 
nan

$$$$

     RDKit          3D

 40 45  0  0  0  0  0  0  0  0999 V2000
   -7.3339    3.4546  -21.8700 C   0  0  0  0  0  0  0  0  0  0  0  0
   -8.2784    3.0152  -22.8801 N   0  0  0  0  0  0  0  0  0  0  0  0
   -7.7867    2.2396  -23.8909 C   0  0  0  0  0  0  0  0  0  0  0  0
   -6.5940    1.9940  -24.0196 O   0  0  0  0  0  0  0  0  0  0  0  0
   -8.8220    1.6761  -24.8592 C   0  0  0  0  0  0  0  0  0  0  0  0
   -9.5015    0.5462  -24.2682 N   0  0  0  0  0  0  0  0  0  0  0  0
   -8.7768   -0.7040  -24.1459 C   0  0  0  0  0  0  0  0  0  0  0  0
   -9.1447   -1.4552  -22.8459 C   0  0  2  0  0  0  0  0  0  0  0  0
   -8.5598   -0.6974  -21.6303 C   0  0  0  0  0  0  0  0  0  0  0  0
   -8.9806    0.3243  -21.1343 O   0  0  0  0  0  0  0  0  0  0  0  0
   -7.4416   -1.3732  -21.1960 N   0  0  0  0  0  0  0  0  0  0  0  0
   -6.6210   -0.8225  -20.1793 C   0  0  0  0  0  0  0  0  0  0  0  0
   -6.9397   -1.0477  -18.8658 C   0  0  0  0  0  0  0  0  0  0  0  0
   -6.2458   -0.5606  -17.8069 N   0  0  0  0  0  0  0  0  0  0  0  0
   -5.2021    0.1900  -18.0773 C   0  0  0  0  0  0  0  0  0  0  0  0
   -4.7631    0.5136  -19.3931 C   0  0  0  0  0  0  0  0  0  0  0  0
   -3.6367    1.3474  -19.6309 C   0  0  0  0  0  0  0  0  0  0  0  0
   -3.2492    1.6493  -20.9072 C   0  0  0  0  0  0  0  0  0  0  0  0
   -3.9692    1.1379  -22.0118 C   0  0  0  0  0  0  0  0  0  0  0  0
   -5.0644    0.3306  -21.8105 C   0  0  0  0  0  0  0  0  0  0  0  0
   -5.4887   -0.0077  -20.4945 C   0  0  0  0  0  0  0  0  0  0  0  0
   -7.1412   -2.5691  -21.9567 C   0  0  0  0  0  0  0  0  0  0  0  0
   -8.4326   -2.8327  -22.7456 C   0  0  2  0  0  0  0  0  0  0  0  0
   -8.1530   -3.5945  -24.0451 C   0  0  0  0  0  0  0  0  0  0  0  0
   -9.3556   -3.9433  -24.7505 N   0  0  0  0  0  0  0  0  0  0  0  0
   -9.3486   -4.5691  -25.9799 C   0  0  0  0  0  0  0  0  0  0  0  0
   -8.1592   -4.9502  -26.6239 C   0  0  0  0  0  0  0  0  0  0  0  0
   -8.2007   -5.5631  -27.8714 C   0  0  0  0  0  0  0  0  0  0  0  0
   -9.4080   -5.8381  -28.5013 C   0  0  0  0  0  0  0  0  0  0  0  0
  -10.5853   -5.4934  -27.8461 C   0  0  0  0  0  0  0  0  0  0  0  0
  -10.5655   -4.8530  -26.6179 C   0  0  0  0  0  0  0  0  0  0  0  0
  -10.6546   -1.5067  -22.7407 C   0  0  0  0  0  0  0  0  0  0  0  0
  -11.2814   -2.4365  -21.9073 C   0  0  0  0  0  0  0  0  0  0  0  0
  -12.6552   -2.4142  -21.7615 C   0  0  0  0  0  0  0  0  0  0  0  0
  -13.3952   -3.5325  -20.6593 Cl  0  0  0  0  0  0  0  0  0  0  0  0
  -13.4579   -1.4836  -22.4196 C   0  0  0  0  0  0  0  0  0  0  0  0
  -12.8403   -0.5404  -23.2127 C   0  0  0  0  0  0  0  0  0  0  0  0
  -11.4552   -0.5290  -23.3458 C   0  0  0  0  0  0  0  0  0  0  0  0
  -10.8460    0.6290  -24.0606 C   0  0  0  0  0  0  0  0  0  0  0  0
  -11.5060    1.5986  -24.4075 O   0  0  0  0  0  0  0  0  0  0  0  0
  1  2  1  0
  2  3  1  0
  3  4  2  0
  3  5  1  0
  5  6  1  0
  6  7  1  0
  8  7  1  6
  8  9  1  0
  9 10  2  0
  9 11  1  0
 11 12  1  0
 12 13  2  0
 13 14  1  0
 14 15  2  0
 15 16  1  0
 16 17  2  0
 17 18  1  0
 18 19  2  0
 19 20  1  0
 20 21  2  0
 11 22  1  0
 22 23  1  0
 23 24  1  6
 24 25  1  0
 25 26  1  0
 26 27  2  0
 27 28  1  0
 28 29  2  0
 29 30  1  0
 30 31  2  0
  8 32  1  0
 32 33  2  0
 33 34  1  0
 34 35  1  0
 34 36  2  0
 36 37  1  0
 37 38  2  0
 38 39  1  0
 39 40  2  0
 39  6  1  0
 23  8  1  0
 31 26  1  0
 38 32  1  0
 21 12  1  0
 21 16  1  0
M  END
>  <cnnaffinities>  (49) 
[6.56003, 6.72819]

>  <score>  (49) 
6.56003

>  <index>  (49) 
23

>  <Smiles>  (49) 
C(N(C(=O)C(N1C([C@@]2(C(=O)N(c3c(nc(c4c(c(c(c(c34)[H])[H])[H])[H])[H])[H])C([C@@]2(C(N(c2c(c(c(c(c2[H])[H])[H])[H])[H])[H])([H])[H])[H])([H])[H])c2c(c(Cl)c(c(c2C1=O)[H])[H])[H])([H])[H])([H])[H])[H])([H])([H])[H]

>  <h>  (49) 
<NA>

>  <Training>  (49) 
True

>  <Success>  (49) 
True

>  <enamine_searched>  (49) 
False

>  <enamine_id>  (49) 
nan

$$$$

     RDKit          3D

 36 41  0  0  0  0  0  0  0  0999 V2000
   -6.0518   -7.6627  -25.3504 O   0  0  0  0  0  0  0  0  0  0  0  0
   -5.9950   -7.2604  -24.1980 C   0  0  0  0  0  0  0  0  0  0  0  0
   -7.1761   -6.6148  -23.4891 C   0  0  0  0  0  0  0  0  0  0  0  0
   -7.1103   -5.1313  -23.6936 N   0  0  1  0  0  0  0  0  0  0  0  0
   -7.2828   -4.8361  -25.1990 C   0  0  0  0  0  0  0  0  0  0  0  0
   -7.2110   -3.3642  -25.4752 C   0  0  0  0  0  0  0  0  0  0  0  0
   -6.8351   -2.9190  -26.7402 C   0  0  0  0  0  0  0  0  0  0  0  0
   -6.7565   -1.5661  -27.0358 C   0  0  0  0  0  0  0  0  0  0  0  0
   -7.0604   -0.6454  -26.0389 C   0  0  0  0  0  0  0  0  0  0  0  0
   -6.9516    1.0610  -26.3796 Cl  0  0  0  0  0  0  0  0  0  0  0  0
   -7.4485   -1.0674  -24.7775 C   0  0  0  0  0  0  0  0  0  0  0  0
   -7.5371   -2.4336  -24.4870 C   0  0  0  0  0  0  0  0  0  0  0  0
   -7.9463   -2.8484  -23.0855 C   0  0  2  0  0  0  0  0  0  0  0  0
   -9.1845   -2.1082  -22.5642 C   0  0  0  0  0  0  0  0  0  0  0  0
   -8.7143   -1.1450  -21.4701 C   0  0  0  0  0  0  0  0  0  0  0  0
   -7.3179   -1.4935  -21.2401 N   0  0  0  0  0  0  0  0  0  0  0  0
   -6.5524   -0.8930  -20.2014 C   0  0  0  0  0  0  0  0  0  0  0  0
   -6.8997   -1.0676  -18.8799 C   0  0  0  0  0  0  0  0  0  0  0  0
   -6.2283   -0.5414  -17.8239 N   0  0  0  0  0  0  0  0  0  0  0  0
   -5.1835    0.2070  -18.0885 C   0  0  0  0  0  0  0  0  0  0  0  0
   -4.7359    0.5115  -19.4064 C   0  0  0  0  0  0  0  0  0  0  0  0
   -3.6154    1.3551  -19.6336 C   0  0  0  0  0  0  0  0  0  0  0  0
   -3.2266    1.6615  -20.9084 C   0  0  0  0  0  0  0  0  0  0  0  0
   -3.9460    1.1470  -22.0110 C   0  0  0  0  0  0  0  0  0  0  0  0
   -5.0289    0.3251  -21.8203 C   0  0  0  0  0  0  0  0  0  0  0  0
   -5.4436   -0.0337  -20.5044 C   0  0  0  0  0  0  0  0  0  0  0  0
   -6.8417   -2.4635  -22.0968 C   0  0  0  0  0  0  0  0  0  0  0  0
   -5.7479   -2.9998  -22.0864 O   0  0  0  0  0  0  0  0  0  0  0  0
   -8.1725   -4.3626  -22.9504 C   0  0  0  0  0  0  0  0  0  0  0  0
   -4.8480   -7.2989  -23.4776 N   0  0  0  0  0  0  0  0  0  0  0  0
   -3.6961   -7.9496  -24.0684 C   0  0  0  0  0  0  0  0  0  0  0  0
   -2.4233   -7.6160  -23.3119 C   0  0  1  0  0  0  0  0  0  0  0  0
   -1.1179   -8.1156  -23.9930 C   0  0  0  0  0  0  0  0  0  0  0  0
   -0.6429   -6.6566  -24.1659 C   0  0  1  0  0  0  0  0  0  0  0  0
   -0.5414   -6.2590  -25.4929 F   0  0  0  0  0  0  0  0  0  0  0  0
   -1.9243   -6.1471  -23.4722 C   0  0  0  0  0  0  0  0  0  0  0  0
  1  2  2  0
  2  3  1  0
  4  3  1  6
  4  5  1  0
  5  6  1  0
  6  7  2  0
  7  8  1  0
  8  9  2  0
  9 10  1  0
  9 11  1  0
 11 12  2  0
 12 13  1  0
 13 14  1  1
 14 15  1  0
 15 16  1  0
 16 17  1  0
 17 18  2  0
 18 19  1  0
 19 20  2  0
 20 21  1  0
 21 22  2  0
 22 23  1  0
 23 24  2  0
 24 25  1  0
 25 26  2  0
 16 27  1  0
 27 28  2  0
 13 29  1  0
  2 30  1  0
 30 31  1  0
 32 31  1  6
 32 33  1  0
 33 34  1  0
 34 35  1  6
 34 36  1  0
 29  4  1  0
 36 32  1  0
 12  6  1  0
 27 13  1  0
 26 17  1  0
 26 21  1  0
M  CHG  1   4   1
M  END
>  <cnnaffinities>  (50) 
[6.41983, 6.04117, 6.33289, 6.00923]

>  <score>  (50) 
6.41983

>  <index>  (50) 
24

>  <Smiles>  (50) 
O=C(C([N@+]1(C(c2c(c(c(Cl)c(c2[C@@]2(C(C(N(c3c(nc(c4c(c(c(c(c34)[H])[H])[H])[H])[H])[H])C2=O)([H])[H])([H])[H])C1([H])[H])[H])[H])[H])([H])[H])[H])([H])[H])N(C([C@]1(C([C@@](F)(C1([H])[H])[H])([H])[H])[H])([H])[H])[H]

>  <h>  (50) 
<NA>

>  <Training>  (50) 
True

>  <Success>  (50) 
True

>  <enamine_searched>  (50) 
False

>  <enamine_id>  (50) 
nan

$$$$

     RDKit          3D

 41 46  0  0  0  0  0  0  0  0999 V2000
   -5.1507   -1.4039  -25.2686 O   0  0  0  0  0  0  0  0  0  0  0  0
   -5.7283   -2.1358  -26.0619 C   0  0  0  0  0  0  0  0  0  0  0  0
   -6.3422   -3.4042  -25.4896 C   0  0  0  0  0  0  0  0  0  0  0  0
   -7.2549   -2.8723  -24.4256 N   0  0  1  0  0  0  0  0  0  0  0  0
   -8.3661   -2.0514  -25.0851 C   0  0  0  0  0  0  0  0  0  0  0  0
   -9.3775   -1.5187  -24.1014 C   0  0  0  0  0  0  0  0  0  0  0  0
  -10.2312   -0.5015  -24.5258 C   0  0  0  0  0  0  0  0  0  0  0  0
  -11.4188   -0.2426  -23.8612 C   0  0  0  0  0  0  0  0  0  0  0  0
  -11.7208   -0.9961  -22.7320 C   0  0  0  0  0  0  0  0  0  0  0  0
  -13.3174   -0.8772  -22.0638 Cl  0  0  0  0  0  0  0  0  0  0  0  0
  -10.7980   -1.8829  -22.1897 C   0  0  0  0  0  0  0  0  0  0  0  0
   -9.6023   -2.1457  -22.8750 C   0  0  0  0  0  0  0  0  0  0  0  0
   -8.5999   -3.1623  -22.3601 C   0  0  2  0  0  0  0  0  0  0  0  0
   -7.5243   -2.6464  -21.4035 C   0  0  0  0  0  0  0  0  0  0  0  0
   -6.8229   -3.4244  -20.7772 O   0  0  0  0  0  0  0  0  0  0  0  0
   -7.3512   -1.2978  -21.2954 N   0  0  0  0  0  0  0  0  0  0  0  0
   -6.5898   -0.7607  -20.2346 C   0  0  0  0  0  0  0  0  0  0  0  0
   -6.9116   -1.0405  -18.9323 C   0  0  0  0  0  0  0  0  0  0  0  0
   -6.2517   -0.5456  -17.8583 N   0  0  0  0  0  0  0  0  0  0  0  0
   -5.2192    0.2314  -18.0980 C   0  0  0  0  0  0  0  0  0  0  0  0
   -4.7609    0.5746  -19.4031 C   0  0  0  0  0  0  0  0  0  0  0  0
   -3.6164    1.3830  -19.6287 C   0  0  0  0  0  0  0  0  0  0  0  0
   -3.2015    1.6451  -20.9054 C   0  0  0  0  0  0  0  0  0  0  0  0
   -3.8916    1.1114  -22.0202 C   0  0  0  0  0  0  0  0  0  0  0  0
   -5.0020    0.3258  -21.8324 C   0  0  0  0  0  0  0  0  0  0  0  0
   -5.4624    0.0605  -20.5159 C   0  0  0  0  0  0  0  0  0  0  0  0
   -7.8638   -3.8854  -23.5017 C   0  0  0  0  0  0  0  0  0  0  0  0
   -6.0485   -1.8212  -27.3520 N   0  0  0  0  0  0  0  0  0  0  0  0
   -5.8907   -0.5535  -27.9573 C   0  0  0  0  0  0  0  0  0  0  0  0
   -5.6833    0.5946  -27.1918 C   0  0  0  0  0  0  0  0  0  0  0  0
   -5.4728    1.8070  -27.8239 C   0  0  0  0  0  0  0  0  0  0  0  0
   -5.4871    1.8957  -29.2135 C   0  0  0  0  0  0  0  0  0  0  0  0
   -5.2840    3.1540  -29.8435 N   0  0  0  0  0  0  0  0  0  0  0  0
   -6.3859    3.7035  -30.6231 C   0  0  0  0  0  0  0  0  0  0  0  0
   -5.8949    4.8879  -31.4320 C   0  0  0  0  0  0  0  0  0  0  0  0
   -5.2066    5.7894  -30.5944 O   0  0  0  0  0  0  0  0  0  0  0  0
   -4.0040    5.2419  -30.1221 C   0  0  0  0  0  0  0  0  0  0  0  0
   -4.1643    3.8664  -29.4882 C   0  0  0  0  0  0  0  0  0  0  0  0
   -3.3087    3.4264  -28.7406 O   0  0  0  0  0  0  0  0  0  0  0  0
   -5.7315    0.7557  -29.9764 C   0  0  0  0  0  0  0  0  0  0  0  0
   -5.9368   -0.4681  -29.3531 C   0  0  0  0  0  0  0  0  0  0  0  0
  1  2  2  0
  2  3  1  0
  4  3  1  6
  4  5  1  0
  5  6  1  0
  6  7  2  0
  7  8  1  0
  8  9  2  0
  9 10  1  0
  9 11  1  0
 11 12  2  0
 12 13  1  0
 13 14  1  1
 14 15  2  0
 14 16  1  0
 16 17  1  0
 17 18  2  0
 18 19  1  0
 19 20  2  0
 20 21  1  0
 21 22  2  0
 22 23  1  0
 23 24  2  0
 24 25  1  0
 25 26  2  0
 13 27  1  0
  2 28  1  0
 28 29  1  0
 29 30  2  0
 30 31  1  0
 31 32  2  0
 32 33  1  0
 33 34  1  0
 34 35  1  0
 35 36  1  0
 36 37  1  0
 37 38  1  0
 38 39  2  0
 32 40  1  0
 40 41  2  0
 27  4  1  0
 41 29  1  0
 12  6  1  0
 26 17  1  0
 38 33  1  0
 26 21  1  0
M  CHG  1   4   1
M  END
>  <cnnaffinities>  (51) 
[5.83411]

>  <score>  (51) 
5.83411

>  <index>  (51) 
25

>  <Smiles>  (51) 
O=C(C([N@+]1(C(c2c(c(c(Cl)c(c2[C@](C(=O)N(c2c(nc(c3c(c(c(c(c23)[H])[H])[H])[H])[H])[H])[H])(C1([H])[H])[H])[H])[H])[H])([H])[H])[H])([H])[H])N(c1c(c(c(N2C(C(OC(C2=O)([H])[H])([H])[H])([H])[H])c(c1[H])[H])[H])[H])[H]

>  <h>  (51) 
<NA>

>  <Training>  (51) 
True

>  <Success>  (51) 
True

>  <enamine_searched>  (51) 
False

>  <enamine_id>  (51) 
nan

$$$$

     RDKit          3D

 34 39  0  0  0  0  0  0  0  0999 V2000
   -7.8648   -3.6263  -24.0859 C   0  0  0  0  0  0  0  0  0  0  0  0
   -8.2749   -2.8699  -22.8153 C   0  0  1  0  0  0  0  0  0  0  0  0
   -7.0805   -2.6294  -21.8665 C   0  0  0  0  0  0  0  0  0  0  0  0
   -7.4029   -1.3852  -21.1957 N   0  0  0  0  0  0  0  0  0  0  0  0
   -6.6026   -0.8069  -20.1716 C   0  0  0  0  0  0  0  0  0  0  0  0
   -6.9050   -1.0449  -18.8554 C   0  0  0  0  0  0  0  0  0  0  0  0
   -6.2049   -0.5500  -17.8037 N   0  0  0  0  0  0  0  0  0  0  0  0
   -5.1711    0.2132  -18.0726 C   0  0  0  0  0  0  0  0  0  0  0  0
   -4.7365    0.5375  -19.3918 C   0  0  0  0  0  0  0  0  0  0  0  0
   -3.6076    1.3694  -19.6365 C   0  0  0  0  0  0  0  0  0  0  0  0
   -3.2115    1.6458  -20.9166 C   0  0  0  0  0  0  0  0  0  0  0  0
   -3.9191    1.0972  -22.0092 C   0  0  0  0  0  0  0  0  0  0  0  0
   -5.0108    0.2869  -21.7982 C   0  0  0  0  0  0  0  0  0  0  0  0
   -5.4600   -0.0003  -20.4801 C   0  0  0  0  0  0  0  0  0  0  0  0
   -8.4095   -0.6634  -21.7975 C   0  0  0  0  0  0  0  0  0  0  0  0
   -8.7857    0.4197  -21.4065 O   0  0  0  0  0  0  0  0  0  0  0  0
   -8.9395   -1.4740  -23.0161 C   0  0  1  0  0  0  0  0  0  0  0  0
   -8.4619   -0.8202  -24.3425 C   0  0  0  0  0  0  0  0  0  0  0  0
   -9.1191    0.4408  -24.6069 N   0  0  0  0  0  0  0  0  0  0  0  0
   -8.3336    1.6268  -24.9365 C   0  0  0  0  0  0  0  0  0  0  0  0
   -8.0451    2.4935  -23.7410 C   0  0  0  0  0  0  0  0  0  0  0  0
   -8.8934    3.4075  -23.0912 C   0  0  0  0  0  0  0  0  0  0  0  0
   -8.2369    3.9355  -22.0645 N   0  0  0  0  0  0  0  0  0  0  0  0
   -7.0682    3.3396  -22.1106 N   0  0  0  0  0  0  0  0  0  0  0  0
   -6.8789    2.4743  -23.0919 N   0  0  0  0  0  0  0  0  0  0  0  0
  -10.4468    0.6386  -24.3472 C   0  0  0  0  0  0  0  0  0  0  0  0
  -10.9815    1.7273  -24.5545 O   0  0  0  0  0  0  0  0  0  0  0  0
  -11.1768   -0.5029  -23.7040 C   0  0  0  0  0  0  0  0  0  0  0  0
  -12.5738   -0.4934  -23.6852 C   0  0  0  0  0  0  0  0  0  0  0  0
  -13.2742   -1.3625  -22.8729 C   0  0  0  0  0  0  0  0  0  0  0  0
  -12.5464   -2.2234  -22.0588 C   0  0  0  0  0  0  0  0  0  0  0  0
  -13.2196   -3.0186  -21.2102 F   0  0  0  0  0  0  0  0  0  0  0  0
  -11.1678   -2.2866  -22.0896 C   0  0  0  0  0  0  0  0  0  0  0  0
  -10.4600   -1.4697  -22.9852 C   0  0  0  0  0  0  0  0  0  0  0  0
  2  1  1  6
  2  3  1  0
  3  4  1  0
  4  5  1  0
  5  6  2  0
  6  7  1  0
  7  8  2  0
  8  9  1  0
  9 10  2  0
 10 11  1  0
 11 12  2  0
 12 13  1  0
 13 14  2  0
  4 15  1  0
 15 16  2  0
 15 17  1  0
 17 18  1  6
 18 19  1  0
 19 20  1  0
 20 21  1  0
 21 22  1  0
 22 23  2  0
 23 24  1  0
 24 25  1  0
 19 26  1  0
 26 27  2  0
 26 28  1  0
 28 29  2  0
 29 30  1  0
 30 31  2  0
 31 32  1  0
 31 33  1  0
 33 34  2  0
 17  2  1  0
 25 21  2  0
 34 28  1  0
 14  5  1  0
 34 17  1  0
 14  9  1  0
M  END
>  <cnnaffinities>  (52) 
[7.02008, 7.10789, 6.55511, 6.58456, 6.58361, 6.49038, 6.56163]

>  <score>  (52) 
7.02008

>  <index>  (52) 
3

>  <Smiles>  (52) 
C([C@]1(C(N(c2c(nc(c3c(c(c(c(c23)[H])[H])[H])[H])[H])[H])C(=O)[C@]21C(N(C(c1c(nn(n1)[H])[H])([H])[H])C(=O)c1c(c(c(F)c(c21)[H])[H])[H])([H])[H])([H])[H])[H])([H])([H])[H]

>  <h>  (52) 
<NA>

>  <Training>  (52) 
True

>  <Success>  (52) 
True

>  <enamine_searched>  (52) 
False

>  <enamine_id>  (52) 
nan

$$$$

     RDKit          3D

 32 36  0  0  0  0  0  0  0  0999 V2000
   -7.0524    3.5738  -22.0855 C   0  0  0  0  0  0  0  0  0  0  0  0
   -7.2927    2.5347  -23.0925 N   0  0  0  0  0  0  0  0  0  0  0  0
   -8.4517    2.8307  -23.9850 C   0  0  0  0  0  0  0  0  0  0  0  0
   -8.7290    1.6733  -24.9460 C   0  0  0  0  0  0  0  0  0  0  0  0
   -9.3848    0.5307  -24.3146 N   0  0  0  0  0  0  0  0  0  0  0  0
   -8.6793   -0.7301  -24.1869 C   0  0  0  0  0  0  0  0  0  0  0  0
   -9.0717   -1.4874  -22.8944 C   0  0  2  0  0  0  0  0  0  0  0  0
   -8.5332   -0.7323  -21.6545 C   0  0  0  0  0  0  0  0  0  0  0  0
   -8.9713    0.2946  -21.1708 O   0  0  0  0  0  0  0  0  0  0  0  0
   -7.4165   -1.3861  -21.1877 N   0  0  0  0  0  0  0  0  0  0  0  0
   -6.6058   -0.8074  -20.1699 C   0  0  0  0  0  0  0  0  0  0  0  0
   -6.9118   -1.0415  -18.8553 C   0  0  0  0  0  0  0  0  0  0  0  0
   -6.2076   -0.5516  -17.8041 N   0  0  0  0  0  0  0  0  0  0  0  0
   -5.1718    0.2057  -18.0796 C   0  0  0  0  0  0  0  0  0  0  0  0
   -4.7406    0.5360  -19.3962 C   0  0  0  0  0  0  0  0  0  0  0  0
   -3.6144    1.3698  -19.6398 C   0  0  0  0  0  0  0  0  0  0  0  0
   -3.2296    1.6690  -20.9182 C   0  0  0  0  0  0  0  0  0  0  0  0
   -3.9484    1.1415  -22.0136 C   0  0  0  0  0  0  0  0  0  0  0  0
   -5.0394    0.3289  -21.8057 C   0  0  0  0  0  0  0  0  0  0  0  0
   -5.4751    0.0095  -20.4888 C   0  0  0  0  0  0  0  0  0  0  0  0
   -7.0560   -2.5662  -21.9513 C   0  0  0  0  0  0  0  0  0  0  0  0
   -8.3154   -2.8521  -22.8000 C   0  0  2  0  0  0  0  0  0  0  0  0
   -7.9753   -3.5591  -24.1218 C   0  0  0  0  0  0  0  0  0  0  0  0
  -10.5868   -1.5595  -22.8258 C   0  0  0  0  0  0  0  0  0  0  0  0
  -11.2301   -2.5151  -22.0296 C   0  0  0  0  0  0  0  0  0  0  0  0
  -12.6068   -2.5165  -21.9508 C   0  0  0  0  0  0  0  0  0  0  0  0
  -13.2145   -3.4363  -21.1822 F   0  0  0  0  0  0  0  0  0  0  0  0
  -13.3948   -1.5898  -22.6238 C   0  0  0  0  0  0  0  0  0  0  0  0
  -12.7633   -0.6078  -23.3584 C   0  0  0  0  0  0  0  0  0  0  0  0
  -11.3708   -0.5690  -23.4393 C   0  0  0  0  0  0  0  0  0  0  0  0
  -10.7358    0.6027  -24.1333 C   0  0  0  0  0  0  0  0  0  0  0  0
  -11.3906    1.5708  -24.5008 O   0  0  0  0  0  0  0  0  0  0  0  0
  1  2  1  0
  2  3  1  0
  3  4  1  0
  4  5  1  0
  5  6  1  0
  7  6  1  6
  7  8  1  0
  8  9  2  0
  8 10  1  0
 10 11  1  0
 11 12  2  0
 12 13  1  0
 13 14  2  0
 14 15  1  0
 15 16  2  0
 16 17  1  0
 17 18  2  0
 18 19  1  0
 19 20  2  0
 10 21  1  0
 21 22  1  0
 22 23  1  6
  7 24  1  0
 24 25  2  0
 25 26  1  0
 26 27  1  0
 26 28  2  0
 28 29  1  0
 29 30  2  0
 30 31  1  0
 31 32  2  0
 31  5  1  0
 22  7  1  0
 30 24  1  0
 20 11  1  0
 20 15  1  0
M  CHG  1   2   1
M  END
>  <cnnaffinities>  (53) 
[6.3767]

>  <score>  (53) 
6.3767

>  <index>  (53) 
27

>  <Smiles>  (53) 
C([N+](C(C(N1C([C@@]2(C(=O)N(c3c(nc(c4c(c(c(c(c34)[H])[H])[H])[H])[H])[H])C([C@@]2(C([H])([H])[H])[H])([H])[H])c2c(c(F)c(c(c2C1=O)[H])[H])[H])([H])[H])([H])[H])([H])[H])([H])[H])([H])([H])[H]

>  <h>  (53) 
<NA>

>  <Training>  (53) 
True

>  <Success>  (53) 
True

>  <enamine_searched>  (53) 
False

>  <enamine_id>  (53) 
nan

$$$$

     RDKit          3D

 40 45  0  0  0  0  0  0  0  0999 V2000
    7.1303    6.3901   21.9405 C   0  0  0  0  0  0  0  0  0  0  0  0
    7.2749    5.5463   23.1069 N   0  0  0  0  0  0  0  0  0  0  0  0
    6.6559    4.3328   23.1126 C   0  0  0  0  0  0  0  0  0  0  0  0
    5.8410    3.9781   22.2779 O   0  0  0  0  0  0  0  0  0  0  0  0
    7.0858    3.4266   24.2708 C   0  0  0  0  0  0  0  0  0  0  0  0
    8.0776    2.4606   23.8163 N   0  0  0  0  0  0  0  0  0  0  0  0
    7.7914    1.0341   23.8351 C   0  0  0  0  0  0  0  0  0  0  0  0
    8.4178    0.2853   22.6190 C   0  0  2  0  0  0  0  0  0  0  0  0
    7.6879    0.6656   21.3136 C   0  0  0  0  0  0  0  0  0  0  0  0
    7.8166    1.6629   20.6401 O   0  0  0  0  0  0  0  0  0  0  0  0
    6.8019   -0.3436   21.0129 N   0  0  0  0  0  0  0  0  0  0  0  0
    5.8736   -0.1833   19.9661 C   0  0  0  0  0  0  0  0  0  0  0  0
    6.0806   -0.7951   18.7575 C   0  0  0  0  0  0  0  0  0  0  0  0
    5.2775   -0.6472   17.6778 N   0  0  0  0  0  0  0  0  0  0  0  0
    4.2158    0.1114   17.8267 C   0  0  0  0  0  0  0  0  0  0  0  0
    3.8653    0.7724   19.0395 C   0  0  0  0  0  0  0  0  0  0  0  0
    2.6922    1.5639   19.1575 C   0  0  0  0  0  0  0  0  0  0  0  0
    2.3620    2.1485   20.3483 C   0  0  0  0  0  0  0  0  0  0  0  0
    3.2157    2.0153   21.4658 C   0  0  0  0  0  0  0  0  0  0  0  0
    4.3760    1.2888   21.3680 C   0  0  0  0  0  0  0  0  0  0  0  0
    4.7184    0.6325   20.1528 C   0  0  0  0  0  0  0  0  0  0  0  0
    6.8729   -1.5033   21.8651 C   0  0  0  0  0  0  0  0  0  0  0  0
    8.1602   -1.2518   22.6575 C   0  0  2  0  0  0  0  0  0  0  0  0
    8.1656   -1.9339   24.0308 C   0  0  0  0  0  0  0  0  0  0  0  0
    8.1514   -3.3786   23.9580 N   0  0  0  0  0  0  0  0  0  0  0  0
    6.9937   -4.1429   23.9178 C   0  0  0  0  0  0  0  0  0  0  0  0
    5.6547   -3.7884   24.2247 C   0  0  0  0  0  0  0  0  0  0  0  0
    4.8411   -4.8404   24.1357 N   0  0  0  0  0  0  0  0  0  0  0  0
    5.6223   -5.8595   23.7718 N   0  0  0  0  0  0  0  0  0  0  0  0
    5.0629   -7.1852   23.6191 C   0  0  0  0  0  0  0  0  0  0  0  0
    6.9251   -5.4943   23.6304 C   0  0  0  0  0  0  0  0  0  0  0  0
    9.8744    0.6826   22.5285 C   0  0  0  0  0  0  0  0  0  0  0  0
   10.8185   -0.1490   21.9110 C   0  0  0  0  0  0  0  0  0  0  0  0
   12.1554    0.1958   21.9381 C   0  0  0  0  0  0  0  0  0  0  0  0
   13.3255   -0.9507   21.3463 Cl  0  0  0  0  0  0  0  0  0  0  0  0
   12.5911    1.4122   22.4552 C   0  0  0  0  0  0  0  0  0  0  0  0
   11.6459    2.2924   22.9521 C   0  0  0  0  0  0  0  0  0  0  0  0
   10.3017    1.9306   22.9999 C   0  0  0  0  0  0  0  0  0  0  0  0
    9.3228    2.9283   23.5343 C   0  0  0  0  0  0  0  0  0  0  0  0
    9.6206    4.1135   23.6772 O   0  0  0  0  0  0  0  0  0  0  0  0
  1  2  1  0
  2  3  1  0
  3  4  2  0
  3  5  1  0
  5  6  1  0
  6  7  1  0
  8  7  1  1
  8  9  1  0
  9 10  2  0
  9 11  1  0
 11 12  1  0
 12 13  2  0
 13 14  1  0
 14 15  2  0
 15 16  1  0
 16 17  2  0
 17 18  1  0
 18 19  2  0
 19 20  1  0
 20 21  2  0
 11 22  1  0
 22 23  1  0
 23 24  1  1
 24 25  1  0
 25 26  1  0
 26 27  1  0
 27 28  2  0
 28 29  1  0
 29 30  1  0
 29 31  1  0
  8 32  1  0
 32 33  2  0
 33 34  1  0
 34 35  1  0
 34 36  2  0
 36 37  1  0
 37 38  2  0
 38 39  1  0
 39 40  2  0
 39  6  1  0
 23  8  1  0
 31 26  2  0
 38 32  1  0
 21 12  1  0
 21 16  1  0
M  END
>  <cnnaffinities>  (54) 
[6.98135, 6.10718, 6.76339]

>  <score>  (54) 
6.98135

>  <index>  (54) 
25

>  <Smiles>  (54) 
C(N(C(=O)C(N1C([C@@]2(C(=O)N(c3c(nc(c4c(c(c(c(c34)[H])[H])[H])[H])[H])[H])C([C@@]2(C(N(c2c(nn(C([H])([H])[H])c2[H])[H])[H])([H])[H])[H])([H])[H])c2c(c(Cl)c(c(c2C1=O)[H])[H])[H])([H])[H])([H])[H])[H])([H])([H])[H]

>  <h>  (54) 
<NA>

>  <Training>  (54) 
True

>  <Success>  (54) 
True

>  <enamine_searched>  (54) 
False

>  <enamine_id>  (54) 
nan

$$$$

     RDKit          3D

 27 31  0  0  0  0  0  0  0  0999 V2000
    8.5617    0.8306   20.3113 O   0  0  0  0  0  0  0  0  0  0  0  0
    8.1104   -0.0661   20.9863 C   0  0  0  0  0  0  0  0  0  0  0  0
    8.7515   -0.8587   21.8955 N   0  0  0  0  0  0  0  0  0  0  0  0
    7.8549   -1.4423   22.8587 C   0  0  1  0  0  0  0  0  0  0  0  0
    8.1345   -2.8994   23.2689 C   0  0  0  0  0  0  0  0  0  0  0  0
    8.4200   -2.4419   24.7340 C   0  0  2  0  0  0  0  0  0  0  0  0
    7.5527   -3.0612   25.7876 C   0  0  0  0  0  0  0  0  0  0  0  0
    6.1577   -3.0377   25.6551 C   0  0  0  0  0  0  0  0  0  0  0  0
    5.3261   -3.6142   26.6089 C   0  0  0  0  0  0  0  0  0  0  0  0
    5.8831   -4.1796   27.7535 C   0  0  0  0  0  0  0  0  0  0  0  0
    7.2535   -4.1205   27.9509 C   0  0  0  0  0  0  0  0  0  0  0  0
    8.0785   -3.6344   26.9434 C   0  0  0  0  0  0  0  0  0  0  0  0
    9.8069   -3.8092   27.1405 Cl  0  0  0  0  0  0  0  0  0  0  0  0
    8.0360   -0.9807   24.3301 C   0  0  0  0  0  0  0  0  0  0  0  0
    6.5053   -1.1857   22.2197 C   0  0  0  0  0  0  0  0  0  0  0  0
    5.4284   -1.5199   22.6558 O   0  0  0  0  0  0  0  0  0  0  0  0
    6.7538   -0.4579   21.0540 N   0  0  0  0  0  0  0  0  0  0  0  0
    5.8358   -0.2296   19.9968 C   0  0  0  0  0  0  0  0  0  0  0  0
    6.0553   -0.8242   18.7792 C   0  0  0  0  0  0  0  0  0  0  0  0
    5.2529   -0.6580   17.7038 N   0  0  0  0  0  0  0  0  0  0  0  0
    4.1918    0.0944   17.8560 C   0  0  0  0  0  0  0  0  0  0  0  0
    3.8380    0.7504   19.0658 C   0  0  0  0  0  0  0  0  0  0  0  0
    2.6566    1.5278   19.1800 C   0  0  0  0  0  0  0  0  0  0  0  0
    2.3548    2.1634   20.3490 C   0  0  0  0  0  0  0  0  0  0  0  0
    3.2414    2.0781   21.4455 C   0  0  0  0  0  0  0  0  0  0  0  0
    4.3939    1.3377   21.3613 C   0  0  0  0  0  0  0  0  0  0  0  0
    4.7004    0.6194   20.1715 C   0  0  0  0  0  0  0  0  0  0  0  0
  1  2  2  0
  2  3  1  0
  4  3  1  0
  4  5  1  1
  5  6  1  0
  6  7  1  1
  7  8  2  0
  8  9  1  0
  9 10  2  0
 10 11  1  0
 11 12  2  0
 12 13  1  0
  6 14  1  0
  4 15  1  0
 15 16  2  0
 15 17  1  0
 17 18  1  0
 18 19  2  0
 19 20  1  0
 20 21  2  0
 21 22  1  0
 22 23  2  0
 23 24  1  0
 24 25  2  0
 25 26  1  0
 26 27  2  0
 17  2  1  0
 27 18  1  0
 14  4  1  0
 27 22  1  0
 12  7  1  0
M  END
>  <cnnaffinities>  (55) 
[5.70965, 5.57673, 5.69732, 5.54045]

>  <score>  (55) 
5.70965

>  <index>  (55) 
26

>  <Smiles>  (55) 
O=C1N([C@]2(C([C@](c3c(c(c(c(c3Cl)[H])[H])[H])[H])(C2([H])[H])[H])([H])[H])C(=O)N1c1c(nc(c2c(c(c(c(c12)[H])[H])[H])[H])[H])[H])[H]

>  <h>  (55) 
<NA>

>  <Training>  (55) 
True

>  <Success>  (55) 
True

>  <enamine_searched>  (55) 
False

>  <enamine_id>  (55) 
nan

$$$$

     RDKit          3D

 38 42  0  0  0  0  0  0  0  0999 V2000
   -7.4192    3.3877  -21.8385 C   0  0  0  0  0  0  0  0  0  0  0  0
   -8.3382    2.9241  -22.8606 N   0  0  0  0  0  0  0  0  0  0  0  0
   -7.7981    2.1934  -23.8764 C   0  0  0  0  0  0  0  0  0  0  0  0
   -6.5900    2.0333  -23.9942 O   0  0  0  0  0  0  0  0  0  0  0  0
   -8.7807    1.5812  -24.8711 C   0  0  0  0  0  0  0  0  0  0  0  0
   -9.4485    0.4221  -24.3197 N   0  0  0  0  0  0  0  0  0  0  0  0
   -8.7048   -0.8150  -24.1623 C   0  0  0  0  0  0  0  0  0  0  0  0
   -9.0778   -1.5534  -22.8543 C   0  0  2  0  0  0  0  0  0  0  0  0
   -8.5450   -0.7683  -21.6358 C   0  0  0  0  0  0  0  0  0  0  0  0
   -9.0224    0.2298  -21.1357 O   0  0  0  0  0  0  0  0  0  0  0  0
   -7.4025   -1.3919  -21.1905 N   0  0  0  0  0  0  0  0  0  0  0  0
   -6.6055   -0.8172  -20.1715 C   0  0  0  0  0  0  0  0  0  0  0  0
   -6.9232   -1.0471  -18.8569 C   0  0  0  0  0  0  0  0  0  0  0  0
   -6.2326   -0.5519  -17.8009 N   0  0  0  0  0  0  0  0  0  0  0  0
   -5.1897    0.2015  -18.0698 C   0  0  0  0  0  0  0  0  0  0  0  0
   -4.7487    0.5207  -19.3871 C   0  0  0  0  0  0  0  0  0  0  0  0
   -3.6232    1.3547  -19.6293 C   0  0  0  0  0  0  0  0  0  0  0  0
   -3.2372    1.6514  -20.9092 C   0  0  0  0  0  0  0  0  0  0  0  0
   -3.9569    1.1348  -22.0104 C   0  0  0  0  0  0  0  0  0  0  0  0
   -5.0510    0.3267  -21.8049 C   0  0  0  0  0  0  0  0  0  0  0  0
   -5.4719   -0.0031  -20.4842 C   0  0  0  0  0  0  0  0  0  0  0  0
   -7.0425   -2.5870  -21.9209 C   0  0  0  0  0  0  0  0  0  0  0  0
   -8.3192   -2.9076  -22.7231 C   0  0  2  0  0  0  0  0  0  0  0  0
   -8.0456   -3.6520  -24.0301 C   0  0  0  0  0  0  0  0  0  0  0  0
   -7.4064   -5.3039  -23.7484 S   0  0  0  0  0  0  0  0  0  0  0  0
   -6.0519   -5.1979  -23.2294 O   0  0  0  0  0  0  0  0  0  0  0  0
   -8.4150   -6.0702  -23.0344 O   0  0  0  0  0  0  0  0  0  0  0  0
   -7.2948   -5.9240  -25.2676 N   0  0  0  0  0  0  0  0  0  0  0  0
   -8.4724   -6.4145  -25.9607 C   0  0  0  0  0  0  0  0  0  0  0  0
  -10.5889   -1.6332  -22.7772 C   0  0  0  0  0  0  0  0  0  0  0  0
  -11.2169   -2.5484  -21.9272 C   0  0  0  0  0  0  0  0  0  0  0  0
  -12.5974   -2.5514  -21.8227 C   0  0  0  0  0  0  0  0  0  0  0  0
  -13.3625   -3.6060  -20.6696 Cl  0  0  0  0  0  0  0  0  0  0  0  0
  -13.4010   -1.6883  -22.5680 C   0  0  0  0  0  0  0  0  0  0  0  0
  -12.7851   -0.7483  -23.3654 C   0  0  0  0  0  0  0  0  0  0  0  0
  -11.3950   -0.6906  -23.4277 C   0  0  0  0  0  0  0  0  0  0  0  0
  -10.7951    0.4844  -24.1212 C   0  0  0  0  0  0  0  0  0  0  0  0
  -11.4694    1.4499  -24.4611 O   0  0  0  0  0  0  0  0  0  0  0  0
  1  2  1  0
  2  3  1  0
  3  4  2  0
  3  5  1  0
  5  6  1  0
  6  7  1  0
  8  7  1  6
  8  9  1  0
  9 10  2  0
  9 11  1  0
 11 12  1  0
 12 13  2  0
 13 14  1  0
 14 15  2  0
 15 16  1  0
 16 17  2  0
 17 18  1  0
 18 19  2  0
 19 20  1  0
 20 21  2  0
 11 22  1  0
 22 23  1  0
 23 24  1  6
 24 25  1  0
 25 26  2  0
 25 27  2  0
 25 28  1  0
 28 29  1  0
  8 30  1  0
 30 31  2  0
 31 32  1  0
 32 33  1  0
 32 34  2  0
 34 35  1  0
 35 36  2  0
 36 37  1  0
 37 38  2  0
 37  6  1  0
 23  8  1  0
 36 30  1  0
 21 12  1  0
 21 16  1  0
M  END
>  <cnnaffinities>  (56) 
[6.67853, 6.94897, 6.68956, 6.90354, 6.86433]

>  <score>  (56) 
6.67853

>  <index>  (56) 
28

>  <Smiles>  (56) 
C(N(C(=O)C(N1C([C@@]2(C(=O)N(c3c(nc(c4c(c(c(c(c34)[H])[H])[H])[H])[H])[H])C([C@@]2(C(S(=O)(=O)N(C([H])([H])[H])[H])([H])[H])[H])([H])[H])c2c(c(Cl)c(c(c2C1=O)[H])[H])[H])([H])[H])([H])[H])[H])([H])([H])[H]

>  <h>  (56) 
<NA>

>  <Training>  (56) 
True

>  <Success>  (56) 
True

>  <enamine_searched>  (56) 
False

>  <enamine_id>  (56) 
nan

$$$$

     RDKit          3D

 25 27  0  0  0  0  0  0  0  0999 V2000
    7.9037    1.7392   24.0125 C   0  0  0  0  0  0  0  0  0  0  0  0
    8.3381    0.4545   24.7006 C   0  0  0  0  0  0  0  0  0  0  0  0
    8.2142   -0.7805   23.8051 C   0  0  1  0  0  0  0  0  0  0  0  0
    8.9216   -2.0347   24.3605 C   0  0  0  0  0  0  0  0  0  0  0  0
    8.1373   -2.8895   25.3643 C   0  0  1  0  0  0  0  0  0  0  0  0
    8.3305   -2.4868   26.8147 C   0  0  0  0  0  0  0  0  0  0  0  0
    7.9216   -3.4637   27.6528 F   0  0  0  0  0  0  0  0  0  0  0  0
    7.6326   -1.3847   27.1643 F   0  0  0  0  0  0  0  0  0  0  0  0
    9.6265   -2.2557   27.0958 F   0  0  0  0  0  0  0  0  0  0  0  0
    6.6623   -3.0193   24.9943 C   0  0  0  0  0  0  0  0  0  0  0  0
    6.0468   -1.7024   24.5346 C   0  0  0  0  0  0  0  0  0  0  0  0
    6.8203   -1.0872   23.4593 N   0  0  0  0  0  0  0  0  0  0  0  0
    6.3902   -1.3087   22.1566 C   0  0  0  0  0  0  0  0  0  0  0  0
    5.5943   -2.1870   21.8786 O   0  0  0  0  0  0  0  0  0  0  0  0
    6.8858   -0.3401   21.0677 C   0  0  0  0  0  0  0  0  0  0  0  0
    5.8686   -0.1738   19.9661 C   0  0  0  0  0  0  0  0  0  0  0  0
    6.0316   -0.8096   18.7632 C   0  0  0  0  0  0  0  0  0  0  0  0
    5.2149   -0.6818   17.6833 N   0  0  0  0  0  0  0  0  0  0  0  0
    4.1582    0.0818   17.8268 C   0  0  0  0  0  0  0  0  0  0  0  0
    3.8185    0.7436   19.0402 C   0  0  0  0  0  0  0  0  0  0  0  0
    2.6307    1.5047   19.1727 C   0  0  0  0  0  0  0  0  0  0  0  0
    2.3196    2.1286   20.3514 C   0  0  0  0  0  0  0  0  0  0  0  0
    3.1975    2.0219   21.4508 C   0  0  0  0  0  0  0  0  0  0  0  0
    4.3564    1.2867   21.3502 C   0  0  0  0  0  0  0  0  0  0  0  0
    4.6961    0.6190   20.1434 C   0  0  0  0  0  0  0  0  0  0  0  0
  1  2  1  0
  3  2  1  1
  3  4  1  0
  4  5  1  0
  5  6  1  1
  6  7  1  0
  6  8  1  0
  6  9  1  0
  5 10  1  0
 10 11  1  0
 11 12  1  0
 12 13  1  0
 13 14  2  0
 13 15  1  0
 15 16  1  0
 16 17  2  0
 17 18  1  0
 18 19  2  0
 19 20  1  0
 20 21  2  0
 21 22  1  0
 22 23  2  0
 23 24  1  0
 24 25  2  0
 12  3  1  0
 25 16  1  0
 25 20  1  0
M  END
>  <cnnaffinities>  (57) 
[5.40479, 5.40481, 5.40478, 5.56655, 5.56717, 5.56751, 5.56801, 5.56853, 5.75755, 5.01037, 5.2823, 5.28469, 5.60881, 5.27811, 5.27801, 5.74967, 5.27783, 5.74946, 5.74938, 5.47751, 5.4775, 5.00827, 5.00819, 5.00811, 5.0081, 5.00774, 5.63352, 5.63343, 5.63344, 5.63343, 5.81974, 5.39533, 5.817]

>  <score>  (57) 
5.40479

>  <index>  (57) 
27

>  <Smiles>  (57) 
C(C([C@]1(C([C@@](C(F)(F)F)(C(C(N1C(=O)C(c1c(nc(c2c(c(c(c(c12)[H])[H])[H])[H])[H])[H])([H])[H])([H])[H])([H])[H])[H])([H])[H])[H])([H])[H])([H])([H])[H]

>  <h>  (57) 
<NA>

>  <Training>  (57) 
True

>  <Success>  (57) 
True

>  <enamine_searched>  (57) 
False

>  <enamine_id>  (57) 
nan

$$$$

     RDKit          3D

 39 44  0  0  0  0  0  0  0  0999 V2000
    6.2428    4.2968   21.8878 C   0  0  0  0  0  0  0  0  0  0  0  0
    7.5744    3.8070   21.4756 N   0  0  0  0  0  0  0  0  0  0  0  0
    8.6819    4.4021   22.2696 C   0  0  0  0  0  0  0  0  0  0  0  0
    8.9482    3.5927   23.5384 C   0  0  0  0  0  0  0  0  0  0  0  0
    9.3951    2.2494   23.2002 N   0  0  0  0  0  0  0  0  0  0  0  0
    8.5861    1.0731   23.4684 C   0  0  0  0  0  0  0  0  0  0  0  0
    8.6958   -0.0152   22.3609 C   0  0  2  0  0  0  0  0  0  0  0  0
    7.9492    0.4248   21.0895 C   0  0  0  0  0  0  0  0  0  0  0  0
    8.2084    1.4258   20.4343 O   0  0  0  0  0  0  0  0  0  0  0  0
    6.8763   -0.3968   20.8596 N   0  0  0  0  0  0  0  0  0  0  0  0
    5.9376   -0.1197   19.8103 C   0  0  0  0  0  0  0  0  0  0  0  0
    6.1612   -0.5979   18.5422 C   0  0  0  0  0  0  0  0  0  0  0  0
    5.3264   -0.4114   17.4876 N   0  0  0  0  0  0  0  0  0  0  0  0
    4.2284    0.2746   17.6990 C   0  0  0  0  0  0  0  0  0  0  0  0
    3.8857    0.8662   18.9475 C   0  0  0  0  0  0  0  0  0  0  0  0
    2.7110    1.6524   19.1048 C   0  0  0  0  0  0  0  0  0  0  0  0
    2.4179    2.2201   20.3127 C   0  0  0  0  0  0  0  0  0  0  0  0
    3.2886    2.0394   21.4104 C   0  0  0  0  0  0  0  0  0  0  0  0
    4.4382    1.2985   21.2742 C   0  0  0  0  0  0  0  0  0  0  0  0
    4.7638    0.6714   20.0404 C   0  0  0  0  0  0  0  0  0  0  0  0
    6.6080   -1.2964   21.9770 C   0  0  0  0  0  0  0  0  0  0  0  0
    7.9361   -1.3239   22.7594 C   0  0  2  0  0  0  0  0  0  0  0  0
    7.7301   -1.5616   24.2686 C   0  0  0  0  0  0  0  0  0  0  0  0
    8.9463   -1.5334   24.9987 O   0  0  0  0  0  0  0  0  0  0  0  0
    9.7410   -2.6870   24.9016 C   0  0  0  0  0  0  0  0  0  0  0  0
   10.9559   -2.5017   25.7978 C   0  0  0  0  0  0  0  0  0  0  0  0
   10.5692   -2.0226   27.0195 F   0  0  0  0  0  0  0  0  0  0  0  0
   11.9152   -3.6836   25.8027 C   0  0  0  0  0  0  0  0  0  0  0  0
   12.6790   -3.0530   24.7583 O   0  0  0  0  0  0  0  0  0  0  0  0
   12.1246   -1.7786   25.1269 C   0  0  0  0  0  0  0  0  0  0  0  0
   10.1751   -0.2057   22.0416 C   0  0  0  0  0  0  0  0  0  0  0  0
   10.6249   -1.3117   21.2995 C   0  0  0  0  0  0  0  0  0  0  0  0
   11.9800   -1.4530   21.0222 C   0  0  0  0  0  0  0  0  0  0  0  0
   12.5707   -2.6848   19.9417 Cl  0  0  0  0  0  0  0  0  0  0  0  0
   12.9289   -0.5525   21.5110 C   0  0  0  0  0  0  0  0  0  0  0  0
   12.4848    0.5609   22.1877 C   0  0  0  0  0  0  0  0  0  0  0  0
   11.1213    0.7725   22.3785 C   0  0  0  0  0  0  0  0  0  0  0  0
   10.7122    2.1216   22.8694 C   0  0  0  0  0  0  0  0  0  0  0  0
   11.5095    3.0529   22.9316 O   0  0  0  0  0  0  0  0  0  0  0  0
  1  2  1  0
  2  3  1  0
  3  4  1  0
  4  5  1  0
  5  6  1  0
  7  6  1  1
  7  8  1  0
  8  9  2  0
  8 10  1  0
 10 11  1  0
 11 12  2  0
 12 13  1  0
 13 14  2  0
 14 15  1  0
 15 16  2  0
 16 17  1  0
 17 18  2  0
 18 19  1  0
 19 20  2  0
 10 21  1  0
 21 22  1  0
 22 23  1  1
 23 24  1  0
 24 25  1  0
 25 26  1  0
 26 27  1  0
 26 28  1  0
 28 29  1  0
 29 30  1  0
  7 31  1  0
 31 32  2  0
 32 33  1  0
 33 34  1  0
 33 35  2  0
 35 36  1  0
 36 37  2  0
 37 38  1  0
 38 39  2  0
 38  5  1  0
 22  7  1  0
 30 26  1  0
 37 31  1  0
 20 11  1  0
 20 15  1  0
M  CHG  1   2   1
M  END
>  <cnnaffinities>  (58) 
[6.48002, 6.44877]

>  <score>  (58) 
6.48002

>  <index>  (58) 
28

>  <Smiles>  (58) 
C([N+](C(C(N1C([C@@]2(C(=O)N(c3c(nc(c4c(c(c(c(c34)[H])[H])[H])[H])[H])[H])C([C@@]2(C(OC(C2(F)C(OC2([H])[H])([H])[H])([H])[H])([H])[H])[H])([H])[H])c2c(c(Cl)c(c(c2C1=O)[H])[H])[H])([H])[H])([H])[H])([H])[H])([H])[H])([H])([H])[H]

>  <h>  (58) 
<NA>

>  <Training>  (58) 
True

>  <Success>  (58) 
True

>  <enamine_searched>  (58) 
False

>  <enamine_id>  (58) 
nan

$$$$

     RDKit          3D

 39 44  0  0  0  0  0  0  0  0999 V2000
    6.2413    3.9822   21.8548 C   0  0  0  0  0  0  0  0  0  0  0  0
    7.6857    4.1857   21.6296 N   0  0  0  0  0  0  0  0  0  0  0  0
    8.4043    4.6765   22.8361 C   0  0  0  0  0  0  0  0  0  0  0  0
    8.5770    3.5695   23.8619 C   0  0  0  0  0  0  0  0  0  0  0  0
    9.1460    2.3791   23.2675 N   0  0  0  0  0  0  0  0  0  0  0  0
    8.4515    1.1407   23.5086 C   0  0  0  0  0  0  0  0  0  0  0  0
    8.7178    0.1191   22.3881 C   0  0  2  0  0  0  0  0  0  0  0  0
    7.8827    0.6028   21.1884 C   0  0  0  0  0  0  0  0  0  0  0  0
    8.0217    1.6691   20.6060 O   0  0  0  0  0  0  0  0  0  0  0  0
    6.8823   -0.3092   20.9579 N   0  0  0  0  0  0  0  0  0  0  0  0
    5.9250   -0.1313   19.9267 C   0  0  0  0  0  0  0  0  0  0  0  0
    6.1382   -0.7258   18.7115 C   0  0  0  0  0  0  0  0  0  0  0  0
    5.3049   -0.6039   17.6522 N   0  0  0  0  0  0  0  0  0  0  0  0
    4.2272    0.1257   17.8153 C   0  0  0  0  0  0  0  0  0  0  0  0
    3.8767    0.7809   19.0316 C   0  0  0  0  0  0  0  0  0  0  0  0
    2.7101    1.5853   19.1550 C   0  0  0  0  0  0  0  0  0  0  0  0
    2.3948    2.1803   20.3454 C   0  0  0  0  0  0  0  0  0  0  0  0
    3.2334    2.0132   21.4698 C   0  0  0  0  0  0  0  0  0  0  0  0
    4.3746    1.2508   21.3704 C   0  0  0  0  0  0  0  0  0  0  0  0
    4.7371    0.6295   20.1413 C   0  0  0  0  0  0  0  0  0  0  0  0
    6.6917   -1.2328   22.0582 C   0  0  0  0  0  0  0  0  0  0  0  0
    8.0704   -1.2538   22.7172 C   0  0  2  0  0  0  0  0  0  0  0  0
    8.0165   -1.6153   24.2068 C   0  0  0  0  0  0  0  0  0  0  0  0
    7.5751   -2.9704   24.4623 N   0  0  0  0  0  0  0  0  0  0  0  0
    6.3052   -3.3341   24.7156 C   0  0  0  0  0  0  0  0  0  0  0  0
    6.0517   -4.6622   24.7581 N   0  0  0  0  0  0  0  0  0  0  0  0
    4.7908   -4.9563   25.0240 C   0  0  0  0  0  0  0  0  0  0  0  0
    3.7931   -4.0974   25.2531 N   0  0  0  0  0  0  0  0  0  0  0  0
    4.1710   -2.8238   25.1855 C   0  0  0  0  0  0  0  0  0  0  0  0
    5.3886   -2.3678   24.9166 N   0  0  0  0  0  0  0  0  0  0  0  0
   10.2102    0.0623   22.0933 C   0  0  0  0  0  0  0  0  0  0  0  0
   10.7905   -1.0415   21.4493 C   0  0  0  0  0  0  0  0  0  0  0  0
   12.1581   -1.0876   21.2489 C   0  0  0  0  0  0  0  0  0  0  0  0
   12.8444   -2.3756   20.3048 Cl  0  0  0  0  0  0  0  0  0  0  0  0
   12.9967   -0.0630   21.6839 C   0  0  0  0  0  0  0  0  0  0  0  0
   12.4293    1.0603   22.2459 C   0  0  0  0  0  0  0  0  0  0  0  0
   11.0465    1.1363   22.4268 C   0  0  0  0  0  0  0  0  0  0  0  0
   10.4839    2.4127   22.9669 C   0  0  0  0  0  0  0  0  0  0  0  0
   11.1637    3.4178   23.1223 O   0  0  0  0  0  0  0  0  0  0  0  0
  1  2  1  0
  2  3  1  0
  3  4  1  0
  4  5  1  0
  5  6  1  0
  7  6  1  1
  7  8  1  0
  8  9  2  0
  8 10  1  0
 10 11  1  0
 11 12  2  0
 12 13  1  0
 13 14  2  0
 14 15  1  0
 15 16  2  0
 16 17  1  0
 17 18  2  0
 18 19  1  0
 19 20  2  0
 10 21  1  0
 21 22  1  0
 22 23  1  1
 23 24  1  0
 24 25  1  0
 25 26  2  0
 26 27  1  0
 27 28  2  0
 28 29  1  0
 29 30  2  0
  7 31  1  0
 31 32  2  0
 32 33  1  0
 33 34  1  0
 33 35  2  0
 35 36  1  0
 36 37  2  0
 37 38  1  0
 38 39  2  0
 38  5  1  0
 22  7  1  0
 30 25  1  0
 37 31  1  0
 20 11  1  0
 20 15  1  0
M  CHG  1   2   1
M  END
>  <cnnaffinities>  (59) 
[6.72514]

>  <score>  (59) 
6.72514

>  <index>  (59) 
29

>  <Smiles>  (59) 
C([N+](C(C(N1C([C@@]2(C(=O)N(c3c(nc(c4c(c(c(c(c34)[H])[H])[H])[H])[H])[H])C([C@@]2(C(N(c2nc(nc(n2)[H])[H])[H])([H])[H])[H])([H])[H])c2c(c(Cl)c(c(c2C1=O)[H])[H])[H])([H])[H])([H])[H])([H])[H])([H])[H])([H])([H])[H]

>  <h>  (59) 
<NA>

>  <Training>  (59) 
True

>  <Success>  (59) 
True

>  <enamine_searched>  (59) 
False

>  <enamine_id>  (59) 
nan

$$$$

     RDKit          3D

 39 44  0  0  0  0  0  0  0  0999 V2000
    7.3731    5.5304   27.0743 C   0  0  0  0  0  0  0  0  0  0  0  0
    7.6094    5.1406   25.6954 N   0  0  0  0  0  0  0  0  0  0  0  0
    7.0177    4.0228   25.2198 C   0  0  0  0  0  0  0  0  0  0  0  0
    6.2422    3.3521   25.8885 O   0  0  0  0  0  0  0  0  0  0  0  0
    7.3254    3.6670   23.7593 C   0  0  0  0  0  0  0  0  0  0  0  0
    8.2844    2.6011   23.5968 N   0  0  0  0  0  0  0  0  0  0  0  0
    7.8713    1.2268   23.7806 C   0  0  0  0  0  0  0  0  0  0  0  0
    8.4191    0.3250   22.6450 C   0  0  2  0  0  0  0  0  0  0  0  0
    7.7155    0.6885   21.3149 C   0  0  0  0  0  0  0  0  0  0  0  0
    7.8639    1.6906   20.6524 O   0  0  0  0  0  0  0  0  0  0  0  0
    6.8467   -0.3279   20.9876 N   0  0  0  0  0  0  0  0  0  0  0  0
    5.8891   -0.1621   19.9582 C   0  0  0  0  0  0  0  0  0  0  0  0
    6.0594   -0.8116   18.7650 C   0  0  0  0  0  0  0  0  0  0  0  0
    5.2383   -0.6741   17.6967 N   0  0  0  0  0  0  0  0  0  0  0  0
    4.1838    0.0920   17.8428 C   0  0  0  0  0  0  0  0  0  0  0  0
    3.8360    0.7583   19.0533 C   0  0  0  0  0  0  0  0  0  0  0  0
    2.6507    1.5336   19.1806 C   0  0  0  0  0  0  0  0  0  0  0  0
    2.3397    2.1490   20.3595 C   0  0  0  0  0  0  0  0  0  0  0  0
    3.2117    2.0357   21.4645 C   0  0  0  0  0  0  0  0  0  0  0  0
    4.3687    1.3020   21.3654 C   0  0  0  0  0  0  0  0  0  0  0  0
    4.7146    0.6386   20.1505 C   0  0  0  0  0  0  0  0  0  0  0  0
    6.7644   -1.3816   21.9734 C   0  0  0  0  0  0  0  0  0  0  0  0
    8.0248   -1.1744   22.8336 C   0  0  2  0  0  0  0  0  0  0  0  0
    7.8356   -1.6796   24.2797 C   0  0  0  0  0  0  0  0  0  0  0  0
    7.5943   -3.1745   24.3448 C   0  0  0  0  0  0  0  0  0  0  0  0
    8.6720   -4.0619   24.2818 C   0  0  0  0  0  0  0  0  0  0  0  0
    8.4702   -5.4389   24.3083 C   0  0  0  0  0  0  0  0  0  0  0  0
    7.1806   -5.9567   24.3870 C   0  0  0  0  0  0  0  0  0  0  0  0
    6.0953   -5.0865   24.4476 C   0  0  0  0  0  0  0  0  0  0  0  0
    6.3034   -3.7078   24.4260 C   0  0  0  0  0  0  0  0  0  0  0  0
    9.9076    0.6051   22.5245 C   0  0  0  0  0  0  0  0  0  0  0  0
   10.7338   -0.2986   21.8492 C   0  0  0  0  0  0  0  0  0  0  0  0
   12.0903   -0.0574   21.7565 C   0  0  0  0  0  0  0  0  0  0  0  0
   13.0835   -1.2559   20.9785 Cl  0  0  0  0  0  0  0  0  0  0  0  0
   12.6620    1.1134   22.2534 C   0  0  0  0  0  0  0  0  0  0  0  0
   11.8388    2.0474   22.8553 C   0  0  0  0  0  0  0  0  0  0  0  0
   10.4699    1.8145   22.9659 C   0  0  0  0  0  0  0  0  0  0  0  0
    9.6003    2.9262   23.4688 C   0  0  0  0  0  0  0  0  0  0  0  0
   10.0149    4.0586   23.7037 O   0  0  0  0  0  0  0  0  0  0  0  0
  1  2  1  0
  2  3  1  0
  3  4  2  0
  3  5  1  0
  5  6  1  0
  6  7  1  0
  8  7  1  1
  8  9  1  0
  9 10  2  0
  9 11  1  0
 11 12  1  0
 12 13  2  0
 13 14  1  0
 14 15  2  0
 15 16  1  0
 16 17  2  0
 17 18  1  0
 18 19  2  0
 19 20  1  0
 20 21  2  0
 11 22  1  0
 22 23  1  0
 23 24  1  1
 24 25  1  0
 25 26  2  0
 26 27  1  0
 27 28  2  0
 28 29  1  0
 29 30  2  0
  8 31  1  0
 31 32  2  0
 32 33  1  0
 33 34  1  0
 33 35  2  0
 35 36  1  0
 36 37  2  0
 37 38  1  0
 38 39  2  0
 38  6  1  0
 23  8  1  0
 30 25  1  0
 37 31  1  0
 21 12  1  0
 21 16  1  0
M  END
>  <cnnaffinities>  (60) 
[6.38924, 6.53577, 6.53361]

>  <score>  (60) 
6.38924

>  <index>  (60) 
30

>  <Smiles>  (60) 
C(N(C(=O)C(N1C([C@@]2(C(=O)N(c3c(nc(c4c(c(c(c(c34)[H])[H])[H])[H])[H])[H])C([C@@]2(C(c2c(c(c(c(c2[H])[H])[H])[H])[H])([H])[H])[H])([H])[H])c2c(c(Cl)c(c(c2C1=O)[H])[H])[H])([H])[H])([H])[H])[H])([H])([H])[H]

>  <h>  (60) 
<NA>

>  <Training>  (60) 
True

>  <Success>  (60) 
True

>  <enamine_searched>  (60) 
False

>  <enamine_id>  (60) 
nan

$$$$

     RDKit          3D

 41 47  0  0  0  0  0  0  0  0999 V2000
   11.0351    3.0807   24.1394 O   0  0  0  0  0  0  0  0  0  0  0  0
   10.5157    2.0242   23.8122 C   0  0  0  0  0  0  0  0  0  0  0  0
   11.3204    0.8944   23.2176 C   0  0  0  0  0  0  0  0  0  0  0  0
   12.7093    1.0017   23.2403 C   0  0  0  0  0  0  0  0  0  0  0  0
   13.4968    0.0586   22.6097 C   0  0  0  0  0  0  0  0  0  0  0  0
   12.8719   -0.9673   21.9005 C   0  0  0  0  0  0  0  0  0  0  0  0
   13.8184   -2.0574   20.9360 Cl  0  0  0  0  0  0  0  0  0  0  0  0
   11.4977   -1.1158   21.9038 C   0  0  0  0  0  0  0  0  0  0  0  0
   10.7014   -0.2057   22.6087 C   0  0  0  0  0  0  0  0  0  0  0  0
    9.1920   -0.2923   22.6352 C   0  0  1  0  0  0  0  0  0  0  0  0
    8.7151    0.3963   23.9418 C   0  0  0  0  0  0  0  0  0  0  0  0
    9.1775    1.7716   23.9903 N   0  0  0  0  0  0  0  0  0  0  0  0
    8.3087    2.8497   24.4402 C   0  0  0  0  0  0  0  0  0  0  0  0
    8.0223    3.9078   23.4282 C   0  0  0  0  0  0  0  0  0  0  0  0
    8.3299    5.1617   23.4053 N   0  0  0  0  0  0  0  0  0  0  0  0
    7.7452    5.6867   22.2589 N   0  0  0  0  0  0  0  0  0  0  0  0
    7.1221    4.7044   21.6976 C   0  0  0  0  0  0  0  0  0  0  0  0
    7.2412    3.5525   22.3883 O   0  0  0  0  0  0  0  0  0  0  0  0
    8.5891    0.4470   21.4244 C   0  0  0  0  0  0  0  0  0  0  0  0
    8.9118    1.5176   20.9564 O   0  0  0  0  0  0  0  0  0  0  0  0
    7.5549   -0.3159   20.9326 N   0  0  0  0  0  0  0  0  0  0  0  0
    6.7418    0.2047   19.9060 C   0  0  0  0  0  0  0  0  0  0  0  0
    7.0688   -0.0326   18.5977 C   0  0  0  0  0  0  0  0  0  0  0  0
    6.3508    0.4321   17.5478 N   0  0  0  0  0  0  0  0  0  0  0  0
    5.3036    1.1764   17.8221 C   0  0  0  0  0  0  0  0  0  0  0  0
    4.8843    1.5281   19.1387 C   0  0  0  0  0  0  0  0  0  0  0  0
    3.7597    2.3568   19.3948 C   0  0  0  0  0  0  0  0  0  0  0  0
    3.3745    2.6349   20.6791 C   0  0  0  0  0  0  0  0  0  0  0  0
    4.1002    2.1123   21.7748 C   0  0  0  0  0  0  0  0  0  0  0  0
    5.2086    1.3315   21.5555 C   0  0  0  0  0  0  0  0  0  0  0  0
    5.6182    1.0196   20.2265 C   0  0  0  0  0  0  0  0  0  0  0  0
    7.2823   -1.5228   21.6801 C   0  0  0  0  0  0  0  0  0  0  0  0
    8.5912   -1.7113   22.4668 C   0  0  2  0  0  0  0  0  0  0  0  0
    8.4288   -2.5143   23.7649 C   0  0  0  0  0  0  0  0  0  0  0  0
    8.1458   -3.9236   23.5596 N   0  0  0  0  0  0  0  0  0  0  0  0
    6.9140   -4.4281   23.2525 C   0  0  0  0  0  0  0  0  0  0  0  0
    5.7087   -3.8605   23.7096 C   0  0  0  0  0  0  0  0  0  0  0  0
    4.5619   -4.5688   23.4049 C   0  0  0  0  0  0  0  0  0  0  0  0
    4.5441   -5.6742   22.6511 N   0  0  0  0  0  0  0  0  0  0  0  0
    5.7364   -6.0853   22.2420 C   0  0  0  0  0  0  0  0  0  0  0  0
    6.9174   -5.5497   22.5154 N   0  0  0  0  0  0  0  0  0  0  0  0
  1  2  2  0
  2  3  1  0
  3  4  2  0
  4  5  1  0
  5  6  2  0
  6  7  1  0
  6  8  1  0
  8  9  2  0
  9 10  1  0
 10 11  1  1
 11 12  1  0
 12 13  1  0
 13 14  1  0
 14 15  2  0
 15 16  1  0
 16 17  2  0
 17 18  1  0
 10 19  1  0
 19 20  2  0
 19 21  1  0
 21 22  1  0
 22 23  2  0
 23 24  1  0
 24 25  2  0
 25 26  1  0
 26 27  2  0
 27 28  1  0
 28 29  2  0
 29 30  1  0
 30 31  2  0
 21 32  1  0
 32 33  1  0
 33 34  1  1
 34 35  1  0
 35 36  1  0
 36 37  2  0
 37 38  1  0
 38 39  2  0
 39 40  1  0
 40 41  2  0
 12  2  1  0
 18 14  1  0
 31 22  1  0
 41 36  1  0
  9  3  1  0
 33 10  1  0
 31 26  1  0
M  END
>  <cnnaffinities>  (61) 
[6.95953, 6.99478, 7.05809, 6.85427, 6.98557, 6.81269, 7.03701, 6.9854, 7.08214]

>  <score>  (61) 
6.95953

>  <index>  (61) 
1

>  <Smiles>  (61) 
O=C1c2c(c(c(Cl)c(c2[C@@]2(C(N1C(c1nnc(o1)[H])([H])[H])([H])[H])C(=O)N(c1c(nc(c3c(c(c(c(c13)[H])[H])[H])[H])[H])[H])C([C@@]2(C(N(c1c(c(nc(n1)[H])[H])[H])[H])([H])[H])[H])([H])[H])[H])[H])[H]

>  <h>  (61) 
<NA>

>  <Training>  (61) 
True

>  <Success>  (61) 
True

>  <enamine_searched>  (61) 
False

>  <enamine_id>  (61) 
nan

$$$$

     RDKit          3D

 38 43  0  0  0  0  0  0  0  0999 V2000
    8.1493   -1.9003   24.0181 C   0  0  0  0  0  0  0  0  0  0  0  0
    8.2064   -1.1907   22.6672 C   0  0  1  0  0  0  0  0  0  0  0  0
    6.9705   -1.4829   21.8038 C   0  0  0  0  0  0  0  0  0  0  0  0
    6.8468   -0.3054   20.9775 N   0  0  0  0  0  0  0  0  0  0  0  0
    5.8834   -0.1675   19.9580 C   0  0  0  0  0  0  0  0  0  0  0  0
    6.0661   -0.8100   18.7620 C   0  0  0  0  0  0  0  0  0  0  0  0
    5.2545   -0.6665   17.6877 N   0  0  0  0  0  0  0  0  0  0  0  0
    4.1984    0.0991   17.8390 C   0  0  0  0  0  0  0  0  0  0  0  0
    3.8573    0.7670   19.0504 C   0  0  0  0  0  0  0  0  0  0  0  0
    2.6730    1.5394   19.1780 C   0  0  0  0  0  0  0  0  0  0  0  0
    2.3477    2.1329   20.3657 C   0  0  0  0  0  0  0  0  0  0  0  0
    3.2078    2.0158   21.4813 C   0  0  0  0  0  0  0  0  0  0  0  0
    4.3651    1.2832   21.3849 C   0  0  0  0  0  0  0  0  0  0  0  0
    4.7221    0.6386   20.1603 C   0  0  0  0  0  0  0  0  0  0  0  0
    7.5977    0.7642   21.3937 C   0  0  0  0  0  0  0  0  0  0  0  0
    7.6308    1.8377   20.8284 O   0  0  0  0  0  0  0  0  0  0  0  0
    8.3464    0.3620   22.6780 C   0  0  1  0  0  0  0  0  0  0  0  0
    7.6686    0.9927   23.9187 C   0  0  0  0  0  0  0  0  0  0  0  0
    7.8431    2.4289   23.9906 N   0  0  0  0  0  0  0  0  0  0  0  0
    6.7253    3.3067   24.2898 C   0  0  0  0  0  0  0  0  0  0  0  0
    6.3227    4.1211   23.0553 C   0  0  0  0  0  0  0  0  0  0  0  0
    5.1739    5.0329   23.3088 N   0  0  1  0  0  0  0  0  0  0  0  0
    5.4807    6.0918   24.3593 C   0  0  0  0  0  0  0  0  0  0  0  0
    4.6140    7.3326   24.1279 C   0  0  0  0  0  0  0  0  0  0  0  0
    3.3499    6.9629   23.6306 O   0  0  0  0  0  0  0  0  0  0  0  0
    3.3869    6.4704   22.2826 C   0  0  0  0  0  0  0  0  0  0  0  0
    2.1459    5.5967   22.1538 C   0  0  0  0  0  0  0  0  0  0  0  0
    3.3172    7.6340   21.2950 C   0  0  0  0  0  0  0  0  0  0  0  0
    4.6713    5.6564   22.0412 C   0  0  0  0  0  0  0  0  0  0  0  0
    9.0421    3.0239   23.7350 C   0  0  0  0  0  0  0  0  0  0  0  0
    9.2390    4.2180   23.9359 O   0  0  0  0  0  0  0  0  0  0  0  0
   10.0956    2.1319   23.1551 C   0  0  0  0  0  0  0  0  0  0  0  0
   11.4093    2.5968   23.1317 C   0  0  0  0  0  0  0  0  0  0  0  0
   12.4208    1.8489   22.5583 C   0  0  0  0  0  0  0  0  0  0  0  0
   12.0814    0.6030   22.0182 C   0  0  0  0  0  0  0  0  0  0  0  0
   13.3373   -0.4431   21.4298 Cl  0  0  0  0  0  0  0  0  0  0  0  0
   10.7691    0.1595   21.9679 C   0  0  0  0  0  0  0  0  0  0  0  0
    9.7657    0.8777   22.6234 C   0  0  0  0  0  0  0  0  0  0  0  0
  2  1  1  1
  2  3  1  0
  3  4  1  0
  4  5  1  0
  5  6  2  0
  6  7  1  0
  7  8  2  0
  8  9  1  0
  9 10  2  0
 10 11  1  0
 11 12  2  0
 12 13  1  0
 13 14  2  0
  4 15  1  0
 15 16  2  0
 15 17  1  0
 17 18  1  1
 18 19  1  0
 19 20  1  0
 20 21  1  0
 22 21  1  6
 22 23  1  0
 23 24  1  0
 24 25  1  0
 25 26  1  0
 26 27  1  0
 26 28  1  0
 26 29  1  0
 19 30  1  0
 30 31  2  0
 30 32  1  0
 32 33  2  0
 33 34  1  0
 34 35  2  0
 35 36  1  0
 35 37  1  0
 37 38  2  0
 17  2  1  0
 29 22  1  0
 38 32  1  0
 14  5  1  0
 38 17  1  0
 14  9  1  0
M  CHG  1  22   1
M  END
>  <cnnaffinities>  (62) 
[6.35372, 6.31006, 6.08761, 6.18412, 6.10104, 6.1158, 6.15955, 6.15706, 6.14097]

>  <score>  (62) 
6.35372

>  <index>  (62) 
32

>  <Smiles>  (62) 
C([C@]1(C(N(c2c(nc(c3c(c(c(c(c23)[H])[H])[H])[H])[H])[H])C(=O)[C@]21C(N(C(C([N@+]1(C(C(OC(C([H])([H])[H])(C([H])([H])[H])C1([H])[H])([H])[H])([H])[H])[H])([H])[H])([H])[H])C(=O)c1c(c(c(Cl)c(c21)[H])[H])[H])([H])[H])([H])[H])[H])([H])([H])[H]

>  <h>  (62) 
<NA>

>  <Training>  (62) 
True

>  <Success>  (62) 
True

>  <enamine_searched>  (62) 
False

>  <enamine_id>  (62) 
nan

$$$$

     RDKit          3D

 34 39  0  0  0  0  0  0  0  0999 V2000
   -7.8648   -3.6263  -24.0859 C   0  0  0  0  0  0  0  0  0  0  0  0
   -8.2749   -2.8699  -22.8153 C   0  0  1  0  0  0  0  0  0  0  0  0
   -7.0805   -2.6294  -21.8665 C   0  0  0  0  0  0  0  0  0  0  0  0
   -7.4029   -1.3852  -21.1957 N   0  0  0  0  0  0  0  0  0  0  0  0
   -6.6026   -0.8069  -20.1716 C   0  0  0  0  0  0  0  0  0  0  0  0
   -6.9050   -1.0449  -18.8554 C   0  0  0  0  0  0  0  0  0  0  0  0
   -6.2049   -0.5500  -17.8037 N   0  0  0  0  0  0  0  0  0  0  0  0
   -5.1711    0.2132  -18.0726 C   0  0  0  0  0  0  0  0  0  0  0  0
   -4.7365    0.5375  -19.3918 C   0  0  0  0  0  0  0  0  0  0  0  0
   -3.6076    1.3694  -19.6365 C   0  0  0  0  0  0  0  0  0  0  0  0
   -3.2115    1.6458  -20.9166 C   0  0  0  0  0  0  0  0  0  0  0  0
   -3.9191    1.0972  -22.0092 C   0  0  0  0  0  0  0  0  0  0  0  0
   -5.0108    0.2869  -21.7982 C   0  0  0  0  0  0  0  0  0  0  0  0
   -5.4600   -0.0003  -20.4801 C   0  0  0  0  0  0  0  0  0  0  0  0
   -8.4095   -0.6634  -21.7975 C   0  0  0  0  0  0  0  0  0  0  0  0
   -8.7857    0.4197  -21.4065 O   0  0  0  0  0  0  0  0  0  0  0  0
   -8.9395   -1.4740  -23.0161 C   0  0  1  0  0  0  0  0  0  0  0  0
   -8.4619   -0.8202  -24.3425 C   0  0  0  0  0  0  0  0  0  0  0  0
   -9.1191    0.4408  -24.6069 N   0  0  0  0  0  0  0  0  0  0  0  0
   -8.3336    1.6268  -24.9365 C   0  0  0  0  0  0  0  0  0  0  0  0
   -8.0451    2.4935  -23.7410 C   0  0  0  0  0  0  0  0  0  0  0  0
   -8.8934    3.4075  -23.0912 C   0  0  0  0  0  0  0  0  0  0  0  0
   -8.2369    3.9355  -22.0645 N   0  0  0  0  0  0  0  0  0  0  0  0
   -7.0682    3.3396  -22.1106 N   0  0  0  0  0  0  0  0  0  0  0  0
   -6.8789    2.4743  -23.0919 N   0  0  0  0  0  0  0  0  0  0  0  0
  -10.4468    0.6386  -24.3472 C   0  0  0  0  0  0  0  0  0  0  0  0
  -10.9815    1.7273  -24.5545 O   0  0  0  0  0  0  0  0  0  0  0  0
  -11.1768   -0.5029  -23.7040 C   0  0  0  0  0  0  0  0  0  0  0  0
  -12.5738   -0.4934  -23.6852 C   0  0  0  0  0  0  0  0  0  0  0  0
  -13.2742   -1.3625  -22.8729 C   0  0  0  0  0  0  0  0  0  0  0  0
  -12.5464   -2.2234  -22.0588 C   0  0  0  0  0  0  0  0  0  0  0  0
  -13.2196   -3.0186  -21.2102 F   0  0  0  0  0  0  0  0  0  0  0  0
  -11.1678   -2.2866  -22.0896 C   0  0  0  0  0  0  0  0  0  0  0  0
  -10.4600   -1.4697  -22.9852 C   0  0  0  0  0  0  0  0  0  0  0  0
  2  1  1  6
  2  3  1  0
  3  4  1  0
  4  5  1  0
  5  6  2  0
  6  7  1  0
  7  8  2  0
  8  9  1  0
  9 10  2  0
 10 11  1  0
 11 12  2  0
 12 13  1  0
 13 14  2  0
  4 15  1  0
 15 16  2  0
 15 17  1  0
 17 18  1  6
 18 19  1  0
 19 20  1  0
 20 21  1  0
 21 22  1  0
 22 23  2  0
 23 24  1  0
 24 25  1  0
 19 26  1  0
 26 27  2  0
 26 28  1  0
 28 29  2  0
 29 30  1  0
 30 31  2  0
 31 32  1  0
 31 33  1  0
 33 34  2  0
 17  2  1  0
 25 21  2  0
 34 28  1  0
 14  5  1  0
 34 17  1  0
 14  9  1  0
M  END
>  <cnnaffinities>  (63) 
[7.02008, 7.10789, 6.55511, 6.58456, 6.58361, 6.49038, 6.56163]

>  <score>  (63) 
7.02008

>  <index>  (63) 
3

>  <Smiles>  (63) 
C([C@]1(C(N(c2c(nc(c3c(c(c(c(c23)[H])[H])[H])[H])[H])[H])C(=O)[C@]21C(N(C(c1c(nn(n1)[H])[H])([H])[H])C(=O)c1c(c(c(F)c(c21)[H])[H])[H])([H])[H])([H])[H])[H])([H])([H])[H]

>  <h>  (63) 
<NA>

>  <Training>  (63) 
True

>  <Success>  (63) 
True

>  <enamine_searched>  (63) 
False

>  <enamine_id>  (63) 
nan

$$$$

     RDKit          3D

 25 28  0  0  0  0  0  0  0  0999 V2000
    8.0325    1.6100   20.2768 O   0  0  0  0  0  0  0  0  0  0  0  0
    7.7206    0.9707   21.2623 C   0  0  0  0  0  0  0  0  0  0  0  0
    6.8831   -0.3122   21.0850 C   0  0  0  0  0  0  0  0  0  0  0  0
    5.8657   -0.1772   19.9767 C   0  0  0  0  0  0  0  0  0  0  0  0
    6.0394   -0.7987   18.7684 C   0  0  0  0  0  0  0  0  0  0  0  0
    5.2227   -0.6719   17.6866 N   0  0  0  0  0  0  0  0  0  0  0  0
    4.1619    0.0832   17.8292 C   0  0  0  0  0  0  0  0  0  0  0  0
    3.8204    0.7456   19.0393 C   0  0  0  0  0  0  0  0  0  0  0  0
    2.6377    1.5137   19.1708 C   0  0  0  0  0  0  0  0  0  0  0  0
    2.3329    2.1473   20.3427 C   0  0  0  0  0  0  0  0  0  0  0  0
    3.2186    2.0510   21.4385 C   0  0  0  0  0  0  0  0  0  0  0  0
    4.3713    1.3136   21.3413 C   0  0  0  0  0  0  0  0  0  0  0  0
    4.7004    0.6264   20.1431 C   0  0  0  0  0  0  0  0  0  0  0  0
    8.1100    1.3851   22.5064 N   0  0  0  0  0  0  0  0  0  0  0  0
    8.8658    2.6268   22.6550 C   0  0  0  0  0  0  0  0  0  0  0  0
    9.2854    2.6502   24.1248 C   0  0  0  0  0  0  0  0  0  0  0  0
    8.3925    1.6261   24.8359 C   0  0  0  0  0  0  0  0  0  0  0  0
    7.9039    0.6648   23.7465 C   0  0  2  0  0  0  0  0  0  0  0  0
    8.6247   -0.6676   23.7712 C   0  0  0  0  0  0  0  0  0  0  0  0
    7.9814   -1.8018   24.2629 C   0  0  0  0  0  0  0  0  0  0  0  0
    8.6408   -3.0255   24.3102 C   0  0  0  0  0  0  0  0  0  0  0  0
    9.9551   -3.1382   23.8761 C   0  0  0  0  0  0  0  0  0  0  0  0
   10.5817   -1.9926   23.4149 C   0  0  0  0  0  0  0  0  0  0  0  0
   11.8555   -2.0820   22.9960 F   0  0  0  0  0  0  0  0  0  0  0  0
    9.9528   -0.7602   23.3611 C   0  0  0  0  0  0  0  0  0  0  0  0
  1  2  2  0
  2  3  1  0
  3  4  1  0
  4  5  2  0
  5  6  1  0
  6  7  2  0
  7  8  1  0
  8  9  2  0
  9 10  1  0
 10 11  2  0
 11 12  1  0
 12 13  2  0
  2 14  1  0
 14 15  1  0
 15 16  1  0
 16 17  1  0
 17 18  1  0
 18 19  1  6
 19 20  2  0
 20 21  1  0
 21 22  2  0
 22 23  1  0
 23 24  1  0
 23 25  2  0
 13  4  1  0
 18 14  1  0
 25 19  1  0
 13  8  1  0
M  END
>  <cnnaffinities>  (64) 
[5.66257, 5.58651, 5.59941, 5.61438, 5.54768]

>  <score>  (64) 
5.66257

>  <index>  (64) 
33

>  <Smiles>  (64) 
O=C(C(c1c(nc(c2c(c(c(c(c12)[H])[H])[H])[H])[H])[H])([H])[H])N1C(C(C([C@@]1(c1c(c(c(c(F)c1[H])[H])[H])[H])[H])([H])[H])([H])[H])([H])[H]

>  <h>  (64) 
<NA>

>  <Training>  (64) 
True

>  <Success>  (64) 
True

>  <enamine_searched>  (64) 
False

>  <enamine_id>  (64) 
nan

$$$$

     RDKit          3D

 36 41  0  0  0  0  0  0  0  0999 V2000
   -7.5254   -3.5833  -23.7420 C   0  0  0  0  0  0  0  0  0  0  0  0
   -8.4190   -2.9140  -22.6927 C   0  0  1  0  0  0  0  0  0  0  0  0
   -7.7204   -2.7345  -21.3294 C   0  0  0  0  0  0  0  0  0  0  0  0
   -7.4087   -1.3234  -21.2571 N   0  0  0  0  0  0  0  0  0  0  0  0
   -6.6137   -0.7874  -20.2161 C   0  0  0  0  0  0  0  0  0  0  0  0
   -6.9097   -1.0653  -18.9041 C   0  0  0  0  0  0  0  0  0  0  0  0
   -6.2354   -0.5750  -17.8337 N   0  0  0  0  0  0  0  0  0  0  0  0
   -5.2030    0.1970  -18.0831 C   0  0  0  0  0  0  0  0  0  0  0  0
   -4.7505    0.5241  -19.3933 C   0  0  0  0  0  0  0  0  0  0  0  0
   -3.6131    1.3489  -19.6056 C   0  0  0  0  0  0  0  0  0  0  0  0
   -3.1817    1.6196  -20.8753 C   0  0  0  0  0  0  0  0  0  0  0  0
   -3.8535    1.0686  -21.9887 C   0  0  0  0  0  0  0  0  0  0  0  0
   -4.9550    0.2703  -21.8092 C   0  0  0  0  0  0  0  0  0  0  0  0
   -5.4524    0.0034  -20.5023 C   0  0  0  0  0  0  0  0  0  0  0  0
   -8.1698   -0.5559  -22.1167 C   0  0  0  0  0  0  0  0  0  0  0  0
   -8.1992    0.6550  -22.1170 O   0  0  0  0  0  0  0  0  0  0  0  0
   -8.9721   -1.5000  -23.0445 C   0  0  1  0  0  0  0  0  0  0  0  0
   -8.7495   -1.0904  -24.5202 C   0  0  0  0  0  0  0  0  0  0  0  0
   -9.3113    0.2194  -24.8101 N   0  0  0  0  0  0  0  0  0  0  0  0
   -8.5407    1.1597  -25.6029 C   0  0  0  0  0  0  0  0  0  0  0  0
   -8.4837    0.8285  -27.0796 C   0  0  0  0  0  0  0  0  0  0  0  0
   -9.1336    1.6106  -27.9864 C   0  0  0  0  0  0  0  0  0  0  0  0
   -9.0387    1.3363  -29.4082 C   0  0  0  0  0  0  0  0  0  0  0  0
   -9.5530    1.9333  -30.3360 O   0  0  0  0  0  0  0  0  0  0  0  0
   -8.2461    0.2073  -29.6686 N   0  0  0  0  0  0  0  0  0  0  0  0
   -7.6406   -0.5200  -28.7015 C   0  0  0  0  0  0  0  0  0  0  0  0
   -7.7223   -0.2683  -27.4364 N   0  0  0  0  0  0  0  0  0  0  0  0
  -10.5418    0.6099  -24.3692 C   0  0  0  0  0  0  0  0  0  0  0  0
  -11.0893    1.6238  -24.7825 O   0  0  0  0  0  0  0  0  0  0  0  0
  -11.1861   -0.3090  -23.3764 C   0  0  0  0  0  0  0  0  0  0  0  0
  -12.5499   -0.1473  -23.1468 C   0  0  0  0  0  0  0  0  0  0  0  0
  -13.2379   -1.0528  -22.3690 C   0  0  0  0  0  0  0  0  0  0  0  0
  -12.5231   -2.0925  -21.7933 C   0  0  0  0  0  0  0  0  0  0  0  0
  -13.1654   -2.9323  -20.9637 F   0  0  0  0  0  0  0  0  0  0  0  0
  -11.1637   -2.2323  -21.9395 C   0  0  0  0  0  0  0  0  0  0  0  0
  -10.4677   -1.3553  -22.7764 C   0  0  0  0  0  0  0  0  0  0  0  0
  2  1  1  6
  2  3  1  0
  3  4  1  0
  4  5  1  0
  5  6  2  0
  6  7  1  0
  7  8  2  0
  8  9  1  0
  9 10  2  0
 10 11  1  0
 11 12  2  0
 12 13  1  0
 13 14  2  0
  4 15  1  0
 15 16  2  0
 15 17  1  0
 17 18  1  6
 18 19  1  0
 19 20  1  0
 20 21  1  0
 21 22  2  0
 22 23  1  0
 23 24  2  0
 23 25  1  0
 25 26  1  0
 26 27  2  0
 19 28  1  0
 28 29  2  0
 28 30  1  0
 30 31  2  0
 31 32  1  0
 32 33  2  0
 33 34  1  0
 33 35  1  0
 35 36  2  0
 17  2  1  0
 27 21  1  0
 36 30  1  0
 14  5  1  0
 36 17  1  0
 14  9  1  0
M  END
>  <cnnaffinities>  (65) 
[6.15506, 6.15299, 6.48415, 6.39567]

>  <score>  (65) 
6.15506

>  <index>  (65) 
30

>  <Smiles>  (65) 
C([C@]1(C(N(c2c(nc(c3c(c(c(c(c23)[H])[H])[H])[H])[H])[H])C(=O)[C@]21C(N(C(c1c(c(=O)n(c(n1)[H])[H])[H])([H])[H])C(=O)c1c(c(c(F)c(c21)[H])[H])[H])([H])[H])([H])[H])[H])([H])([H])[H]

>  <h>  (65) 
<NA>

>  <Training>  (65) 
True

>  <Success>  (65) 
True

>  <enamine_searched>  (65) 
False

>  <enamine_id>  (65) 
nan

$$$$

     RDKit          3D

 40 45  0  0  0  0  0  0  0  0999 V2000
   -7.3715    3.4620  -21.8563 C   0  0  0  0  0  0  0  0  0  0  0  0
   -8.3365    3.0168  -22.8499 N   0  0  0  0  0  0  0  0  0  0  0  0
   -7.8601    2.2318  -23.8622 C   0  0  0  0  0  0  0  0  0  0  0  0
   -6.6746    1.9695  -23.9986 O   0  0  0  0  0  0  0  0  0  0  0  0
   -8.9041    1.6750  -24.8289 C   0  0  0  0  0  0  0  0  0  0  0  0
   -9.5694    0.5329  -24.2435 N   0  0  0  0  0  0  0  0  0  0  0  0
   -8.8321   -0.7118  -24.1297 C   0  0  0  0  0  0  0  0  0  0  0  0
   -9.1750   -1.4644  -22.8218 C   0  0  2  0  0  0  0  0  0  0  0  0
   -8.5774   -0.7029  -21.6147 C   0  0  0  0  0  0  0  0  0  0  0  0
   -9.0035    0.3152  -21.1140 O   0  0  0  0  0  0  0  0  0  0  0  0
   -7.4458   -1.3685  -21.1969 N   0  0  0  0  0  0  0  0  0  0  0  0
   -6.6230   -0.8203  -20.1780 C   0  0  0  0  0  0  0  0  0  0  0  0
   -6.9383   -1.0478  -18.8629 C   0  0  0  0  0  0  0  0  0  0  0  0
   -6.2423   -0.5618  -17.8051 N   0  0  0  0  0  0  0  0  0  0  0  0
   -5.2001    0.1902  -18.0771 C   0  0  0  0  0  0  0  0  0  0  0  0
   -4.7654    0.5190  -19.3934 C   0  0  0  0  0  0  0  0  0  0  0  0
   -3.6405    1.3548  -19.6314 C   0  0  0  0  0  0  0  0  0  0  0  0
   -3.2570    1.6594  -20.9078 C   0  0  0  0  0  0  0  0  0  0  0  0
   -3.9776    1.1484  -22.0111 C   0  0  0  0  0  0  0  0  0  0  0  0
   -5.0713    0.3388  -21.8097 C   0  0  0  0  0  0  0  0  0  0  0  0
   -5.4928   -0.0019  -20.4937 C   0  0  0  0  0  0  0  0  0  0  0  0
   -7.1463   -2.5627  -21.9640 C   0  0  0  0  0  0  0  0  0  0  0  0
   -8.4485   -2.8376  -22.7360 C   0  0  2  0  0  0  0  0  0  0  0  0
   -8.1913   -3.6007  -24.0384 C   0  0  0  0  0  0  0  0  0  0  0  0
   -9.4191   -3.9302  -24.7268 N   0  0  0  0  0  0  0  0  0  0  0  0
   -9.4254   -4.5736  -25.9244 C   0  0  0  0  0  0  0  0  0  0  0  0
  -10.6293   -4.9178  -26.5637 C   0  0  0  0  0  0  0  0  0  0  0  0
  -10.5299   -5.5292  -27.7890 C   0  0  0  0  0  0  0  0  0  0  0  0
   -9.3625   -5.8108  -28.3944 N   0  0  0  0  0  0  0  0  0  0  0  0
   -8.2951   -5.4627  -27.6897 C   0  0  0  0  0  0  0  0  0  0  0  0
   -8.2472   -4.8600  -26.4986 N   0  0  0  0  0  0  0  0  0  0  0  0
  -10.6848   -1.5283  -22.6984 C   0  0  0  0  0  0  0  0  0  0  0  0
  -11.2974   -2.4772  -21.8741 C   0  0  0  0  0  0  0  0  0  0  0  0
  -12.6696   -2.4659  -21.7099 C   0  0  0  0  0  0  0  0  0  0  0  0
  -13.3931   -3.6098  -20.6231 Cl  0  0  0  0  0  0  0  0  0  0  0  0
  -13.4846   -1.5278  -22.3419 C   0  0  0  0  0  0  0  0  0  0  0  0
  -12.8841   -0.5722  -23.1336 C   0  0  0  0  0  0  0  0  0  0  0  0
  -11.5014   -0.5548  -23.2895 C   0  0  0  0  0  0  0  0  0  0  0  0
  -10.9097    0.6052  -24.0147 C   0  0  0  0  0  0  0  0  0  0  0  0
  -11.5850    1.5716  -24.3521 O   0  0  0  0  0  0  0  0  0  0  0  0
  1  2  1  0
  2  3  1  0
  3  4  2  0
  3  5  1  0
  5  6  1  0
  6  7  1  0
  8  7  1  6
  8  9  1  0
  9 10  2  0
  9 11  1  0
 11 12  1  0
 12 13  2  0
 13 14  1  0
 14 15  2  0
 15 16  1  0
 16 17  2  0
 17 18  1  0
 18 19  2  0
 19 20  1  0
 20 21  2  0
 11 22  1  0
 22 23  1  0
 23 24  1  6
 24 25  1  0
 25 26  1  0
 26 27  2  0
 27 28  1  0
 28 29  2  0
 29 30  1  0
 30 31  2  0
  8 32  1  0
 32 33  2  0
 33 34  1  0
 34 35  1  0
 34 36  2  0
 36 37  1  0
 37 38  2  0
 38 39  1  0
 39 40  2  0
 39  6  1  0
 23  8  1  0
 31 26  1  0
 38 32  1  0
 21 12  1  0
 21 16  1  0
M  END
>  <cnnaffinities>  (66) 
[6.62184, 7.01194]

>  <score>  (66) 
6.62184

>  <index>  (66) 
0

>  <Smiles>  (66) 
C(N(C(=O)C(N1C([C@@]2(C(=O)N(c3c(nc(c4c(c(c(c(c34)[H])[H])[H])[H])[H])[H])C([C@@]2(C(N(c2c(c(nc(n2)[H])[H])[H])[H])([H])[H])[H])([H])[H])c2c(c(Cl)c(c(c2C1=O)[H])[H])[H])([H])[H])([H])[H])[H])([H])([H])[H]

>  <h>  (66) 
<NA>

>  <Training>  (66) 
True

>  <Success>  (66) 
True

>  <enamine_searched>  (66) 
False

>  <enamine_id>  (66) 
nan

$$$$

     RDKit          3D

 35 40  0  0  0  0  0  0  0  0999 V2000
   -8.2365   -3.9873  -23.7495 C   0  0  0  0  0  0  0  0  0  0  0  0
   -8.4988   -3.1293  -22.5092 C   0  0  1  0  0  0  0  0  0  0  0  0
   -7.1817   -2.4896  -22.0325 C   0  0  0  0  0  0  0  0  0  0  0  0
   -7.5984   -1.3215  -21.2831 N   0  0  0  0  0  0  0  0  0  0  0  0
   -6.7926   -0.7906  -20.2306 C   0  0  0  0  0  0  0  0  0  0  0  0
   -7.1035   -1.0436  -18.9145 C   0  0  0  0  0  0  0  0  0  0  0  0
   -6.3819   -0.6078  -17.8475 N   0  0  0  0  0  0  0  0  0  0  0  0
   -5.3141    0.1138  -18.0922 C   0  0  0  0  0  0  0  0  0  0  0  0
   -4.8577    0.4410  -19.3988 C   0  0  0  0  0  0  0  0  0  0  0  0
   -3.7148    1.2614  -19.6085 C   0  0  0  0  0  0  0  0  0  0  0  0
   -3.2864    1.5417  -20.8763 C   0  0  0  0  0  0  0  0  0  0  0  0
   -3.9538    0.9799  -21.9881 C   0  0  0  0  0  0  0  0  0  0  0  0
   -5.0525    0.1723  -21.8056 C   0  0  0  0  0  0  0  0  0  0  0  0
   -5.5766   -0.0710  -20.5077 C   0  0  0  0  0  0  0  0  0  0  0  0
   -8.9119   -0.9604  -21.5493 C   0  0  0  0  0  0  0  0  0  0  0  0
   -9.5077   -0.0651  -20.9902 O   0  0  0  0  0  0  0  0  0  0  0  0
   -9.4851   -1.9243  -22.6505 C   0  0  1  0  0  0  0  0  0  0  0  0
   -9.3261   -1.3080  -24.0680 C   0  0  0  0  0  0  0  0  0  0  0  0
  -10.3198   -0.2918  -24.4002 N   0  0  0  0  0  0  0  0  0  0  0  0
   -9.8356    0.9167  -25.0684 C   0  0  0  0  0  0  0  0  0  0  0  0
   -9.0086    1.6679  -24.0865 C   0  0  0  0  0  0  0  0  0  0  0  0
   -7.6991    1.7547  -24.0131 N   0  0  0  0  0  0  0  0  0  0  0  0
   -7.4422    2.3560  -22.8320 N   0  0  0  0  0  0  0  0  0  0  0  0
   -8.5332    2.6131  -22.1989 N   0  0  0  0  0  0  0  0  0  0  0  0
   -9.5410    2.1943  -22.9768 N   0  0  0  0  0  0  0  0  0  0  0  0
  -10.9310    2.3305  -22.5849 C   0  0  0  0  0  0  0  0  0  0  0  0
  -11.6368   -0.3917  -24.0553 C   0  0  0  0  0  0  0  0  0  0  0  0
  -12.5046    0.3794  -24.4473 O   0  0  0  0  0  0  0  0  0  0  0  0
  -11.9694   -1.4427  -23.0598 C   0  0  0  0  0  0  0  0  0  0  0  0
  -13.3192   -1.5267  -22.7134 C   0  0  0  0  0  0  0  0  0  0  0  0
  -13.7347   -2.4476  -21.7794 C   0  0  0  0  0  0  0  0  0  0  0  0
  -12.7586   -3.2397  -21.2008 C   0  0  0  0  0  0  0  0  0  0  0  0
  -13.1673   -4.0766  -20.2342 F   0  0  0  0  0  0  0  0  0  0  0  0
  -11.4199   -3.1826  -21.5391 C   0  0  0  0  0  0  0  0  0  0  0  0
  -10.9714   -2.2182  -22.4452 C   0  0  0  0  0  0  0  0  0  0  0  0
  2  1  1  6
  2  3  1  0
  3  4  1  0
  4  5  1  0
  5  6  2  0
  6  7  1  0
  7  8  2  0
  8  9  1  0
  9 10  2  0
 10 11  1  0
 11 12  2  0
 12 13  1  0
 13 14  2  0
  4 15  1  0
 15 16  2  0
 15 17  1  0
 17 18  1  6
 18 19  1  0
 19 20  1  0
 20 21  1  0
 21 22  2  0
 22 23  1  0
 23 24  2  0
 24 25  1  0
 25 26  1  0
 19 27  1  0
 27 28  2  0
 27 29  1  0
 29 30  2  0
 30 31  1  0
 31 32  2  0
 32 33  1  0
 32 34  1  0
 34 35  2  0
 17  2  1  0
 25 21  1  0
 35 29  1  0
 14  5  1  0
 35 17  1  0
 14  9  1  0
M  END
>  <cnnaffinities>  (67) 
[6.59536, 6.4116, 6.59001, 6.09408, 6.19452]

>  <score>  (67) 
6.59536

>  <index>  (67) 
32

>  <Smiles>  (67) 
C([C@]1(C(N(c2c(nc(c3c(c(c(c(c23)[H])[H])[H])[H])[H])[H])C(=O)[C@]21C(N(C(c1nnnn1C([H])([H])[H])([H])[H])C(=O)c1c(c(c(F)c(c21)[H])[H])[H])([H])[H])([H])[H])[H])([H])([H])[H]

>  <h>  (67) 
<NA>

>  <Training>  (67) 
True

>  <Success>  (67) 
True

>  <enamine_searched>  (67) 
False

>  <enamine_id>  (67) 
nan

$$$$

     RDKit          3D

 35 40  0  0  0  0  0  0  0  0999 V2000
    7.0554   -1.3227   24.1882 C   0  0  0  0  0  0  0  0  0  0  0  0
    7.9183   -1.1605   22.9243 C   0  0  1  0  0  0  0  0  0  0  0  0
    7.1346   -1.5531   21.6523 C   0  0  0  0  0  0  0  0  0  0  0  0
    6.8086   -0.2825   21.0460 N   0  0  0  0  0  0  0  0  0  0  0  0
    5.8917   -0.1249   19.9831 C   0  0  0  0  0  0  0  0  0  0  0  0
    6.0932   -0.7573   18.7834 C   0  0  0  0  0  0  0  0  0  0  0  0
    5.2952   -0.6129   17.7022 N   0  0  0  0  0  0  0  0  0  0  0  0
    4.2404    0.1588   17.8341 C   0  0  0  0  0  0  0  0  0  0  0  0
    3.8876    0.8337   19.0367 C   0  0  0  0  0  0  0  0  0  0  0  0
    2.7081    1.6171   19.1472 C   0  0  0  0  0  0  0  0  0  0  0  0
    2.3554    2.1817   20.3435 C   0  0  0  0  0  0  0  0  0  0  0  0
    3.1906    2.0306   21.4741 C   0  0  0  0  0  0  0  0  0  0  0  0
    4.3610    1.3177   21.3820 C   0  0  0  0  0  0  0  0  0  0  0  0
    4.7336    0.6890   20.1596 C   0  0  0  0  0  0  0  0  0  0  0  0
    7.6876    0.7221   21.3827 C   0  0  0  0  0  0  0  0  0  0  0  0
    7.8336    1.7434   20.7480 O   0  0  0  0  0  0  0  0  0  0  0  0
    8.4744    0.2800   22.6383 C   0  0  1  0  0  0  0  0  0  0  0  0
    8.2228    1.2439   23.8364 C   0  0  0  0  0  0  0  0  0  0  0  0
    8.8435    2.5497   23.6663 N   0  0  0  0  0  0  0  0  0  0  0  0
    8.1248    3.7636   24.0587 C   0  0  0  0  0  0  0  0  0  0  0  0
    7.4286    4.4160   22.9009 C   0  0  0  0  0  0  0  0  0  0  0  0
    7.8598    5.4638   22.0864 C   0  0  0  0  0  0  0  0  0  0  0  0
    6.9433    5.6822   21.1508 N   0  0  0  0  0  0  0  0  0  0  0  0
    6.0097    4.7955   21.4094 N   0  0  0  0  0  0  0  0  0  0  0  0
    4.8262    4.7060   20.5844 C   0  0  0  0  0  0  0  0  0  0  0  0
    6.2374    4.0050   22.4463 N   0  0  0  0  0  0  0  0  0  0  0  0
   10.0920    2.7106   23.1314 C   0  0  0  0  0  0  0  0  0  0  0  0
   10.6795    3.7873   23.1408 O   0  0  0  0  0  0  0  0  0  0  0  0
   10.7141    1.4764   22.5469 C   0  0  0  0  0  0  0  0  0  0  0  0
   12.0877    1.4955   22.2949 C   0  0  0  0  0  0  0  0  0  0  0  0
   12.7425    0.3645   21.8432 C   0  0  0  0  0  0  0  0  0  0  0  0
   11.9841   -0.7663   21.5703 C   0  0  0  0  0  0  0  0  0  0  0  0
   12.6034   -1.8798   21.1489 F   0  0  0  0  0  0  0  0  0  0  0  0
   10.6153   -0.7939   21.7512 C   0  0  0  0  0  0  0  0  0  0  0  0
    9.9632    0.3142   22.3128 C   0  0  0  0  0  0  0  0  0  0  0  0
  2  1  1  1
  2  3  1  0
  3  4  1  0
  4  5  1  0
  5  6  2  0
  6  7  1  0
  7  8  2  0
  8  9  1  0
  9 10  2  0
 10 11  1  0
 11 12  2  0
 12 13  1  0
 13 14  2  0
  4 15  1  0
 15 16  2  0
 15 17  1  0
 17 18  1  1
 18 19  1  0
 19 20  1  0
 20 21  1  0
 21 22  1  0
 22 23  2  0
 23 24  1  0
 24 25  1  0
 24 26  1  0
 19 27  1  0
 27 28  2  0
 27 29  1  0
 29 30  2  0
 30 31  1  0
 31 32  2  0
 32 33  1  0
 32 34  1  0
 34 35  2  0
 17  2  1  0
 26 21  2  0
 35 29  1  0
 14  5  1  0
 35 17  1  0
 14  9  1  0
M  END
>  <cnnaffinities>  (68) 
[6.13842, 5.99573, 6.09991, 6.05709]

>  <score>  (68) 
6.13842

>  <index>  (68) 
34

>  <Smiles>  (68) 
C([C@]1(C(N(c2c(nc(c3c(c(c(c(c23)[H])[H])[H])[H])[H])[H])C(=O)[C@]21C(N(C(c1c(nn(C([H])([H])[H])n1)[H])([H])[H])C(=O)c1c(c(c(F)c(c21)[H])[H])[H])([H])[H])([H])[H])[H])([H])([H])[H]

>  <h>  (68) 
<NA>

>  <Training>  (68) 
True

>  <Success>  (68) 
True

>  <enamine_searched>  (68) 
False

>  <enamine_id>  (68) 
nan

$$$$

     RDKit          3D

 31 34  0  0  0  0  0  0  0  0999 V2000
   11.1068    7.8547   21.2719 N   0  0  0  0  0  0  0  0  0  0  0  0
   10.1960    7.5406   21.9089 C   0  0  0  0  0  0  0  0  0  0  0  0
    9.0662    7.1504   22.7756 C   0  0  0  0  0  0  0  0  0  0  0  0
    8.7193    5.6823   22.6717 C   0  0  0  0  0  0  0  0  0  0  0  0
    9.6253    4.7627   23.1927 C   0  0  0  0  0  0  0  0  0  0  0  0
    9.3842    3.4012   23.1255 C   0  0  0  0  0  0  0  0  0  0  0  0
    8.2334    2.9204   22.4946 C   0  0  0  0  0  0  0  0  0  0  0  0
    7.9658    1.5147   22.4479 N   0  0  0  0  0  0  0  0  0  0  0  0
    7.9576    0.7563   23.6925 C   0  0  0  0  0  0  0  0  0  0  0  0
    6.6193    0.8039   24.4071 C   0  0  0  0  0  0  0  0  0  0  0  0
    5.8642   -0.3490   24.6226 C   0  0  0  0  0  0  0  0  0  0  0  0
    4.6180   -0.2790   25.2395 C   0  0  0  0  0  0  0  0  0  0  0  0
    4.1131    0.9459   25.6616 C   0  0  0  0  0  0  0  0  0  0  0  0
    4.8824    2.0887   25.4675 C   0  0  0  0  0  0  0  0  0  0  0  0
    4.2587    3.6268   26.0043 Cl  0  0  0  0  0  0  0  0  0  0  0  0
    6.1262    2.0314   24.8500 C   0  0  0  0  0  0  0  0  0  0  0  0
    7.7002    0.9551   21.2035 C   0  0  0  0  0  0  0  0  0  0  0  0
    8.1132    1.4538   20.1826 O   0  0  0  0  0  0  0  0  0  0  0  0
    6.8737   -0.3314   21.0969 C   0  0  0  0  0  0  0  0  0  0  0  0
    5.8596   -0.1969   19.9887 C   0  0  0  0  0  0  0  0  0  0  0  0
    6.0540   -0.7945   18.7701 C   0  0  0  0  0  0  0  0  0  0  0  0
    5.2497   -0.6507   17.6858 N   0  0  0  0  0  0  0  0  0  0  0  0
    4.1854    0.0992   17.8328 C   0  0  0  0  0  0  0  0  0  0  0  0
    3.8347    0.7588   19.0435 C   0  0  0  0  0  0  0  0  0  0  0  0
    2.6567    1.5386   19.1661 C   0  0  0  0  0  0  0  0  0  0  0  0
    2.3488    2.1563   20.3426 C   0  0  0  0  0  0  0  0  0  0  0  0
    3.2262    2.0489   21.4476 C   0  0  0  0  0  0  0  0  0  0  0  0
    4.3813    1.3121   21.3523 C   0  0  0  0  0  0  0  0  0  0  0  0
    4.7056    0.6263   20.1510 C   0  0  0  0  0  0  0  0  0  0  0  0
    7.3244    3.8390   21.9584 C   0  0  0  0  0  0  0  0  0  0  0  0
    7.5619    5.2070   22.0596 C   0  0  0  0  0  0  0  0  0  0  0  0
  1  2  3  0
  2  3  1  0
  3  4  1  0
  4  5  2  0
  5  6  1  0
  6  7  2  0
  7  8  1  0
  8  9  1  0
  9 10  1  0
 10 11  2  0
 11 12  1  0
 12 13  2  0
 13 14  1  0
 14 15  1  0
 14 16  2  0
  8 17  1  0
 17 18  2  0
 17 19  1  0
 19 20  1  0
 20 21  2  0
 21 22  1  0
 22 23  2  0
 23 24  1  0
 24 25  2  0
 25 26  1  0
 26 27  2  0
 27 28  1  0
 28 29  2  0
  7 30  1  0
 30 31  2  0
 31  4  1  0
 16 10  1  0
 29 20  1  0
 29 24  1  0
M  END
>  <cnnaffinities>  (69) 
[6.06185, 6.06474, 6.2769, 5.9838, 6.34928, 6.13382, 6.13355, 5.97873, 6.08505, 6.08501, 5.95424, 5.95786, 6.11866, 6.1524, 6.1214, 6.15657, 6.26375]

>  <score>  (69) 
6.06185

>  <index>  (69) 
35

>  <Smiles>  (69) 
N#CC(c1c(c(c(N(C(c2c(c(c(c(Cl)c2[H])[H])[H])[H])([H])[H])C(=O)C(c2c(nc(c3c(c(c(c(c23)[H])[H])[H])[H])[H])[H])([H])[H])c(c1[H])[H])[H])[H])([H])[H]

>  <h>  (69) 
<NA>

>  <Training>  (69) 
True

>  <Success>  (69) 
True

>  <enamine_searched>  (69) 
False

>  <enamine_id>  (69) 
nan

$$$$

     RDKit          3D

 28 29  0  0  0  0  0  0  0  0999 V2000
  -10.1666   -1.3763  -23.0653 C   0  0  0  0  0  0  0  0  0  0  0  0
  -11.1436   -2.2634  -22.6628 C   0  0  0  0  0  0  0  0  0  0  0  0
  -12.4742   -1.8607  -22.6397 C   0  0  0  0  0  0  0  0  0  0  0  0
  -13.6853   -3.0226  -22.1204 Cl  0  0  0  0  0  0  0  0  0  0  0  0
  -12.8069   -0.5764  -23.0201 C   0  0  0  0  0  0  0  0  0  0  0  0
  -11.8623    0.3275  -23.4244 C   0  0  0  0  0  0  0  0  0  0  0  0
  -10.5406   -0.1021  -23.4375 C   0  0  0  0  0  0  0  0  0  0  0  0
  -12.1684    1.6857  -23.8325 C   0  0  0  0  0  0  0  0  0  0  0  0
  -13.4373    2.2152  -23.7390 C   0  0  0  0  0  0  0  0  0  0  0  0
  -13.7338    3.5161  -24.1296 C   0  0  0  0  0  0  0  0  0  0  0  0
  -12.7443    4.3110  -24.6257 C   0  0  0  0  0  0  0  0  0  0  0  0
  -11.4437    3.8064  -24.7349 C   0  0  0  0  0  0  0  0  0  0  0  0
  -11.1862    2.5095  -24.3370 C   0  0  0  0  0  0  0  0  0  0  0  0
  -13.0282    5.9537  -25.1392 S   0  0  0  0  0  0  0  0  0  0  0  0
  -14.0983    6.7485  -24.0283 N   0  0  0  0  0  0  0  0  0  0  0  0
  -11.7081    6.6559  -25.2135 O   0  0  0  0  0  0  0  0  0  0  0  0
  -13.6495    5.9343  -26.5104 O   0  0  0  0  0  0  0  0  0  0  0  0
   -8.6672   -3.2925  -23.1493 C   0  0  0  0  0  0  0  0  0  0  0  0
   -8.7230   -1.7837  -23.1005 C   0  0  2  0  0  0  0  0  0  0  0  0
   -8.0037   -1.3336  -21.9527 N   0  0  0  0  0  0  0  0  0  0  0  0
   -7.0508   -0.2819  -21.9641 C   0  0  0  0  0  0  0  0  0  0  0  0
   -6.8212    0.2916  -23.0415 O   0  0  0  0  0  0  0  0  0  0  0  0
   -6.3508    0.1139  -20.7062 C   0  0  0  0  0  0  0  0  0  0  0  0
   -5.4471   -0.8750  -20.3627 O   0  0  0  0  0  0  0  0  0  0  0  0
   -5.8401   -1.6156  -18.9156 S   0  0  0  0  0  0  0  0  0  0  0  0
   -5.2174   -3.2255  -18.8854 N   0  0  0  0  0  0  0  0  0  0  0  0
   -7.3508   -1.7126  -18.8339 O   0  0  0  0  0  0  0  0  0  0  0  0
   -5.2945   -0.7996  -17.7797 O   0  0  0  0  0  0  0  0  0  0  0  0
 19 18  1  1
 19 20  1  0
 20 21  1  0
 21 22  2  0
 21 23  1  0
 23 24  1  0
 24 25  1  0
 25 26  1  0
 25 27  2  0
 25 28  2  0
 19  1  1  0
  1  2  2  0
  2  3  1  0
  3  4  1  0
  3  5  2  0
  5  6  1  0
  6  8  1  0
  8  9  2  0
  9 10  1  0
 10 11  2  0
 11 14  1  0
 14 15  1  0
 14 16  2  0
 14 17  2  0
 11 12  1  0
 12 13  2  0
  6  7  2  0
  7  1  1  0
 13  8  1  0
M  END
>  <minimizedAffinity>  (70) 
-8.31303

>  <CNNscore>  (70) 
0.8571853042

>  <CNNaffinity>  (70) 
6.4324507713

>  <CNN_VS>  (70) 
5.5138020515

>  <CNNaffinity_variance>  (70) 
0.2437143773

$$$$

     RDKit          3D

 37 41  0  0  0  0  0  0  0  0999 V2000
   -7.4067    3.4745  -21.8342 C   0  0  0  0  0  0  0  0  0  0  0  0
   -8.3832    3.0086  -22.8039 N   0  0  0  0  0  0  0  0  0  0  0  0
   -7.9048    2.2478  -23.8314 C   0  0  0  0  0  0  0  0  0  0  0  0
   -6.7133    2.0157  -23.9792 O   0  0  0  0  0  0  0  0  0  0  0  0
   -8.9488    1.6901  -24.7973 C   0  0  0  0  0  0  0  0  0  0  0  0
   -9.5717    0.5038  -24.2479 N   0  0  0  0  0  0  0  0  0  0  0  0
   -8.7866   -0.7124  -24.1180 C   0  0  0  0  0  0  0  0  0  0  0  0
   -9.1211   -1.4964  -22.8226 C   0  0  2  0  0  0  0  0  0  0  0  0
   -8.5741   -0.7411  -21.5920 C   0  0  0  0  0  0  0  0  0  0  0  0
   -9.0456    0.2480  -21.0655 O   0  0  0  0  0  0  0  0  0  0  0  0
   -7.4246   -1.3717  -21.1771 N   0  0  0  0  0  0  0  0  0  0  0  0
   -6.6139   -0.8077  -20.1621 C   0  0  0  0  0  0  0  0  0  0  0  0
   -6.9281   -1.0402  -18.8500 C   0  0  0  0  0  0  0  0  0  0  0  0
   -6.2312   -0.5521  -17.7941 N   0  0  0  0  0  0  0  0  0  0  0  0
   -5.1897    0.1993  -18.0684 C   0  0  0  0  0  0  0  0  0  0  0  0
   -4.7536    0.5242  -19.3850 C   0  0  0  0  0  0  0  0  0  0  0  0
   -3.6283    1.3572  -19.6289 C   0  0  0  0  0  0  0  0  0  0  0  0
   -3.2474    1.6594  -20.9059 C   0  0  0  0  0  0  0  0  0  0  0  0
   -3.9723    1.1485  -22.0072 C   0  0  0  0  0  0  0  0  0  0  0  0
   -5.0664    0.3425  -21.8023 C   0  0  0  0  0  0  0  0  0  0  0  0
   -5.4830    0.0049  -20.4838 C   0  0  0  0  0  0  0  0  0  0  0  0
   -7.0666   -2.5392  -21.9575 C   0  0  0  0  0  0  0  0  0  0  0  0
   -8.3432   -2.8438  -22.7548 C   0  0  2  0  0  0  0  0  0  0  0  0
   -8.0405   -3.5469  -24.0808 C   0  0  0  0  0  0  0  0  0  0  0  0
   -9.2088   -3.8196  -24.8252 O   0  0  0  0  0  0  0  0  0  0  0  0
   -9.7996   -5.1013  -24.6027 C   0  0  0  0  0  0  0  0  0  0  0  0
  -11.2908   -4.9092  -24.8110 C   0  0  0  0  0  0  0  0  0  0  0  0
   -9.2100   -6.1420  -25.5566 C   0  0  0  0  0  0  0  0  0  0  0  0
  -10.6282   -1.6158  -22.7288 C   0  0  0  0  0  0  0  0  0  0  0  0
  -11.2208   -2.5585  -21.8819 C   0  0  0  0  0  0  0  0  0  0  0  0
  -12.5964   -2.5872  -21.7418 C   0  0  0  0  0  0  0  0  0  0  0  0
  -13.3208   -3.6424  -20.5687 Cl  0  0  0  0  0  0  0  0  0  0  0  0
  -13.4350   -1.7437  -22.4712 C   0  0  0  0  0  0  0  0  0  0  0  0
  -12.8543   -0.7870  -23.2733 C   0  0  0  0  0  0  0  0  0  0  0  0
  -11.4697   -0.6880  -23.3551 C   0  0  0  0  0  0  0  0  0  0  0  0
  -10.9158    0.5199  -24.0310 C   0  0  0  0  0  0  0  0  0  0  0  0
  -11.6229    1.4722  -24.3403 O   0  0  0  0  0  0  0  0  0  0  0  0
  1  2  1  0
  2  3  1  0
  3  4  2  0
  3  5  1  0
  5  6  1  0
  6  7  1  0
  8  7  1  6
  8  9  1  0
  9 10  2  0
  9 11  1  0
 11 12  1  0
 12 13  2  0
 13 14  1  0
 14 15  2  0
 15 16  1  0
 16 17  2  0
 17 18  1  0
 18 19  2  0
 19 20  1  0
 20 21  2  0
 11 22  1  0
 22 23  1  0
 23 24  1  6
 24 25  1  0
 25 26  1  0
 26 27  1  0
 26 28  1  0
  8 29  1  0
 29 30  2  0
 30 31  1  0
 31 32  1  0
 31 33  2  0
 33 34  1  0
 34 35  2  0
 35 36  1  0
 36 37  2  0
 36  6  1  0
 23  8  1  0
 35 29  1  0
 21 12  1  0
 21 16  1  0
M  END
>  <cnnaffinities>  (71) 
[6.62912, 6.99013, 6.41658, 6.65481, 6.67821]

>  <score>  (71) 
6.62912

>  <index>  (71) 
3

>  <Smiles>  (71) 
C(N(C(=O)C(N1C([C@@]2(C(=O)N(c3c(nc(c4c(c(c(c(c34)[H])[H])[H])[H])[H])[H])C([C@@]2(C(OC(C([H])([H])[H])(C([H])([H])[H])[H])([H])[H])[H])([H])[H])c2c(c(Cl)c(c(c2C1=O)[H])[H])[H])([H])[H])([H])[H])[H])([H])([H])[H]

>  <h>  (71) 
<NA>

>  <Training>  (71) 
True

>  <Success>  (71) 
True

>  <enamine_searched>  (71) 
False

>  <enamine_id>  (71) 
nan

$$$$

     RDKit          3D

 23 25  0  0  0  0  0  0  0  0999 V2000
   -9.1915    0.2043  -21.0646 O   0  0  0  0  0  0  0  0  0  0  0  0
   -8.3865   -0.3205  -21.8054 C   0  0  0  0  0  0  0  0  0  0  0  0
   -7.4449   -1.4131  -21.2692 C   0  0  0  0  0  0  0  0  0  0  0  0
   -6.5713   -0.8345  -20.1718 C   0  0  0  0  0  0  0  0  0  0  0  0
   -6.8768   -1.0399  -18.8500 C   0  0  0  0  0  0  0  0  0  0  0  0
   -6.1931   -0.5357  -17.7873 N   0  0  0  0  0  0  0  0  0  0  0  0
   -5.1556    0.2219  -18.0603 C   0  0  0  0  0  0  0  0  0  0  0  0
   -4.7215    0.5354  -19.3793 C   0  0  0  0  0  0  0  0  0  0  0  0
   -3.6000    1.3717  -19.6211 C   0  0  0  0  0  0  0  0  0  0  0  0
   -3.2128    1.6644  -20.9024 C   0  0  0  0  0  0  0  0  0  0  0  0
   -3.9310    1.1307  -21.9948 C   0  0  0  0  0  0  0  0  0  0  0  0
   -5.0188    0.3168  -21.7849 C   0  0  0  0  0  0  0  0  0  0  0  0
   -5.4494   -0.0012  -20.4687 C   0  0  0  0  0  0  0  0  0  0  0  0
   -8.1868    0.0961  -23.1287 N   0  0  0  0  0  0  0  0  0  0  0  0
   -8.2763   -0.8169  -24.2677 C   0  0  0  0  0  0  0  0  0  0  0  0
   -7.2949   -0.4232  -25.3610 C   0  0  0  0  0  0  0  0  0  0  0  0
   -7.4940    1.0388  -25.7530 C   0  0  0  0  0  0  0  0  0  0  0  0
   -6.5066    1.4559  -26.8312 C   0  0  0  0  0  0  0  0  0  0  0  0
   -6.5990    0.6904  -27.9380 F   0  0  0  0  0  0  0  0  0  0  0  0
   -6.6874    2.7321  -27.2294 F   0  0  0  0  0  0  0  0  0  0  0  0
   -5.2299    1.3628  -26.4041 F   0  0  0  0  0  0  0  0  0  0  0  0
   -7.4027    1.9510  -24.5314 C   0  0  0  0  0  0  0  0  0  0  0  0
   -8.3884    1.5081  -23.4532 C   0  0  0  0  0  0  0  0  0  0  0  0
  1  2  2  0
  2  3  1  0
  3  4  1  0
  4  5  2  0
  5  6  1  0
  6  7  2  0
  7  8  1  0
  8  9  2  0
  9 10  1  0
 10 11  2  0
 11 12  1  0
 12 13  2  0
  2 14  1  0
 14 15  1  0
 15 16  1  0
 16 17  1  0
 17 18  1  0
 18 19  1  0
 18 20  1  0
 18 21  1  0
 17 22  1  0
 22 23  1  0
 13  4  1  0
 23 14  1  0
 13  8  1  0
M  END
>  <cnnaffinities>  (72) 
[5.06448, 5.06451, 5.06451, 5.06455, 5.0645, 5.06449, 5.06455, 5.06438, 5.06667, 4.82742, 4.82804, 4.97039, 4.97039, 4.9703, 4.97034, 4.97034, 5.07753, 5.07753, 5.07753, 5.07752, 5.07752, 5.07752, 5.07756, 5.30888, 5.30818, 5.30868, 5.37781, 5.37758, 5.23268, 5.23257, 5.23255, 5.23257, 5.23256, 5.23252, 5.23251, 5.23252, 5.23252, 5.23251, 5.2325, 5.23247, 5.19656, 5.13287, 5.13289, 4.83606, 4.8361, 5.09084, 5.09066, 5.0906, 5.09063, 5.09065]

>  <score>  (72) 
5.06448

>  <index>  (72) 
5

>  <Smiles>  (72) 
O=C(C(c1c(nc(c2c(c(c(c(c12)[H])[H])[H])[H])[H])[H])([H])[H])N1C(C(C(C(F)(F)F)(C(C1([H])[H])([H])[H])[H])([H])[H])([H])[H]

>  <h>  (72) 
<NA>

>  <Training>  (72) 
True

>  <Success>  (72) 
True

>  <enamine_searched>  (72) 
False

>  <enamine_id>  (72) 
nan

$$$$

     RDKit          3D

 25 28  0  0  0  0  0  0  0  0999 V2000
   -8.4981    0.7365  -21.4579 O   0  0  0  0  0  0  0  0  0  0  0  0
   -8.5220   -0.4353  -21.7869 C   0  0  0  0  0  0  0  0  0  0  0  0
   -7.4713   -1.4225  -21.2706 C   0  0  0  0  0  0  0  0  0  0  0  0
   -6.6061   -0.8342  -20.1910 C   0  0  0  0  0  0  0  0  0  0  0  0
   -6.9124   -1.0516  -18.8763 C   0  0  0  0  0  0  0  0  0  0  0  0
   -6.2382   -0.5507  -17.8044 N   0  0  0  0  0  0  0  0  0  0  0  0
   -5.1965    0.2052  -18.0717 C   0  0  0  0  0  0  0  0  0  0  0  0
   -4.7578    0.5208  -19.3852 C   0  0  0  0  0  0  0  0  0  0  0  0
   -3.6267    1.3496  -19.6166 C   0  0  0  0  0  0  0  0  0  0  0  0
   -3.2330    1.6442  -20.8942 C   0  0  0  0  0  0  0  0  0  0  0  0
   -3.9497    1.1259  -21.9952 C   0  0  0  0  0  0  0  0  0  0  0  0
   -5.0503    0.3246  -21.7975 C   0  0  0  0  0  0  0  0  0  0  0  0
   -5.4821   -0.0033  -20.4829 C   0  0  0  0  0  0  0  0  0  0  0  0
   -9.5121   -0.9469  -22.5901 N   0  0  0  0  0  0  0  0  0  0  0  0
  -10.6193   -0.0577  -22.9152 C   0  0  0  0  0  0  0  0  0  0  0  0
  -11.9309   -0.8041  -22.7211 C   0  0  0  0  0  0  0  0  0  0  0  0
  -11.9956   -2.1060  -23.5133 C   0  0  0  0  0  0  0  0  0  0  0  0
  -10.7669   -2.9553  -23.1718 C   0  0  0  0  0  0  0  0  0  0  0  0
   -9.4468   -2.1947  -23.3630 C   0  0  1  0  0  0  0  0  0  0  0  0
   -9.0944   -1.9582  -24.8395 C   0  0  0  0  0  0  0  0  0  0  0  0
   -9.7433   -2.6108  -25.8960 C   0  0  0  0  0  0  0  0  0  0  0  0
   -9.3300   -2.4365  -27.2145 C   0  0  0  0  0  0  0  0  0  0  0  0
   -8.3418   -1.5049  -27.5126 C   0  0  0  0  0  0  0  0  0  0  0  0
   -7.7006   -0.8321  -26.4748 C   0  0  0  0  0  0  0  0  0  0  0  0
   -8.0458   -1.0848  -25.1513 C   0  0  0  0  0  0  0  0  0  0  0  0
  1  2  2  0
  2  3  1  0
  3  4  1  0
  4  5  2  0
  5  6  1  0
  6  7  2  0
  7  8  1  0
  8  9  2  0
  9 10  1  0
 10 11  2  0
 11 12  1  0
 12 13  2  0
  2 14  1  0
 14 15  1  0
 15 16  1  0
 16 17  1  0
 17 18  1  0
 18 19  1  0
 19 20  1  6
 20 21  2  0
 21 22  1  0
 22 23  2  0
 23 24  1  0
 24 25  2  0
 13  4  1  0
 19 14  1  0
 25 20  1  0
 13  8  1  0
M  END
>  <cnnaffinities>  (73) 
[5.03309, 5.2529, 5.27416, 5.51038, 5.51253]

>  <score>  (73) 
5.03309

>  <index>  (73) 
36

>  <Smiles>  (73) 
O=C(C(c1c(nc(c2c(c(c(c(c12)[H])[H])[H])[H])[H])[H])([H])[H])N1C(C(C(C([C@]1(c1c(c(c(c(c1[H])[H])[H])[H])[H])[H])([H])[H])([H])[H])([H])[H])([H])[H]

>  <h>  (73) 
<NA>

>  <Training>  (73) 
True

>  <Success>  (73) 
True

>  <enamine_searched>  (73) 
False

>  <enamine_id>  (73) 
nan

$$$$

     RDKit          3D

 35 40  0  0  0  0  0  0  0  0999 V2000
    7.0251   -1.2694   24.2030 C   0  0  0  0  0  0  0  0  0  0  0  0
    7.8924   -1.1487   22.9398 C   0  0  1  0  0  0  0  0  0  0  0  0
    7.1020   -1.5565   21.6763 C   0  0  0  0  0  0  0  0  0  0  0  0
    6.7974   -0.2940   21.0479 N   0  0  0  0  0  0  0  0  0  0  0  0
    5.8853   -0.1322   19.9824 C   0  0  0  0  0  0  0  0  0  0  0  0
    6.0919   -0.7549   18.7782 C   0  0  0  0  0  0  0  0  0  0  0  0
    5.2955   -0.6067   17.6958 N   0  0  0  0  0  0  0  0  0  0  0  0
    4.2385    0.1626   17.8309 C   0  0  0  0  0  0  0  0  0  0  0  0
    3.8870    0.8345   19.0364 C   0  0  0  0  0  0  0  0  0  0  0  0
    2.7084    1.6177   19.1493 C   0  0  0  0  0  0  0  0  0  0  0  0
    2.3554    2.1755   20.3491 C   0  0  0  0  0  0  0  0  0  0  0  0
    3.1895    2.0224   21.4788 C   0  0  0  0  0  0  0  0  0  0  0  0
    4.3661    1.3204   21.3820 C   0  0  0  0  0  0  0  0  0  0  0  0
    4.7315    0.6861   20.1589 C   0  0  0  0  0  0  0  0  0  0  0  0
    7.7004    0.6994   21.3555 C   0  0  0  0  0  0  0  0  0  0  0  0
    7.8709    1.6934   20.6871 O   0  0  0  0  0  0  0  0  0  0  0  0
    8.4680    0.2790   22.6295 C   0  0  1  0  0  0  0  0  0  0  0  0
    8.2211    1.2619   23.8119 C   0  0  0  0  0  0  0  0  0  0  0  0
    8.8627    2.5542   23.6426 N   0  0  0  0  0  0  0  0  0  0  0  0
    8.1703    3.7703   24.0670 C   0  0  0  0  0  0  0  0  0  0  0  0
    7.4666    4.4466   22.9265 C   0  0  0  0  0  0  0  0  0  0  0  0
    7.9353    5.5401   22.1710 C   0  0  0  0  0  0  0  0  0  0  0  0
    6.9704    5.7305   21.2092 C   0  0  0  0  0  0  0  0  0  0  0  0
    6.0127    4.8065   21.4201 N   0  0  0  0  0  0  0  0  0  0  0  0
    4.8002    4.6360   20.6548 C   0  0  0  0  0  0  0  0  0  0  0  0
    6.2950    4.0075   22.4656 N   0  0  0  0  0  0  0  0  0  0  0  0
   10.1147    2.6941   23.1074 C   0  0  0  0  0  0  0  0  0  0  0  0
   10.7218    3.7590   23.1170 O   0  0  0  0  0  0  0  0  0  0  0  0
   10.7226    1.4436   22.5425 C   0  0  0  0  0  0  0  0  0  0  0  0
   12.0990    1.4412   22.2961 C   0  0  0  0  0  0  0  0  0  0  0  0
   12.7373    0.2980   21.8497 C   0  0  0  0  0  0  0  0  0  0  0  0
   11.9582   -0.8213   21.5827 C   0  0  0  0  0  0  0  0  0  0  0  0
   12.5587   -1.9446   21.1501 F   0  0  0  0  0  0  0  0  0  0  0  0
   10.5868   -0.8213   21.7438 C   0  0  0  0  0  0  0  0  0  0  0  0
    9.9569    0.2944   22.3085 C   0  0  0  0  0  0  0  0  0  0  0  0
  2  1  1  1
  2  3  1  0
  3  4  1  0
  4  5  1  0
  5  6  2  0
  6  7  1  0
  7  8  2  0
  8  9  1  0
  9 10  2  0
 10 11  1  0
 11 12  2  0
 12 13  1  0
 13 14  2  0
  4 15  1  0
 15 16  2  0
 15 17  1  0
 17 18  1  1
 18 19  1  0
 19 20  1  0
 20 21  1  0
 21 22  1  0
 22 23  2  0
 23 24  1  0
 24 25  1  0
 24 26  1  0
 19 27  1  0
 27 28  2  0
 27 29  1  0
 29 30  2  0
 30 31  1  0
 31 32  2  0
 32 33  1  0
 32 34  1  0
 34 35  2  0
 17  2  1  0
 26 21  2  0
 35 29  1  0
 14  5  1  0
 35 17  1  0
 14  9  1  0
M  END
>  <cnnaffinities>  (74) 
[6.05399, 6.01444]

>  <score>  (74) 
6.05399

>  <index>  (74) 
36

>  <Smiles>  (74) 
C([C@]1(C(N(c2c(nc(c3c(c(c(c(c23)[H])[H])[H])[H])[H])[H])C(=O)[C@]21C(N(C(c1c(c(n(C([H])([H])[H])n1)[H])[H])([H])[H])C(=O)c1c(c(c(F)c(c21)[H])[H])[H])([H])[H])([H])[H])[H])([H])([H])[H]

>  <h>  (74) 
<NA>

>  <Training>  (74) 
True

>  <Success>  (74) 
True

>  <enamine_searched>  (74) 
False

>  <enamine_id>  (74) 
nan

$$$$

     RDKit          3D

 30 33  0  0  0  0  0  0  0  0999 V2000
   13.7938    0.3403   23.5184 N   0  0  0  0  0  0  0  0  0  0  0  0
   12.7264   -0.0853   23.3797 C   0  0  0  0  0  0  0  0  0  0  0  0
   11.3986   -0.6145   23.2050 C   0  0  0  0  0  0  0  0  0  0  0  0
   11.2144   -1.8547   22.5828 C   0  0  0  0  0  0  0  0  0  0  0  0
    9.9325   -2.3583   22.4157 C   0  0  0  0  0  0  0  0  0  0  0  0
    8.8258   -1.6242   22.8404 C   0  0  0  0  0  0  0  0  0  0  0  0
    7.5187   -2.1606   22.6374 N   0  0  0  0  0  0  0  0  0  0  0  0
    7.1254   -3.3453   23.4017 C   0  0  0  0  0  0  0  0  0  0  0  0
    6.7061   -3.0072   24.8239 C   0  0  0  0  0  0  0  0  0  0  0  0
    7.6938   -2.8682   25.7910 C   0  0  0  0  0  0  0  0  0  0  0  0
    7.3613   -2.5866   27.1010 C   0  0  0  0  0  0  0  0  0  0  0  0
    6.0467   -2.3251   27.4600 C   0  0  0  0  0  0  0  0  0  0  0  0
    5.0581   -2.4756   26.4935 C   0  0  0  0  0  0  0  0  0  0  0  0
    3.3837   -2.2464   26.9348 Cl  0  0  0  0  0  0  0  0  0  0  0  0
    5.3656   -2.8369   25.1837 C   0  0  0  0  0  0  0  0  0  0  0  0
    6.4954   -1.4860   22.0097 C   0  0  0  0  0  0  0  0  0  0  0  0
    5.3329   -1.8169   22.1758 O   0  0  0  0  0  0  0  0  0  0  0  0
    6.8936   -0.3633   21.0521 C   0  0  0  0  0  0  0  0  0  0  0  0
    5.8767   -0.1701   19.9648 C   0  0  0  0  0  0  0  0  0  0  0  0
    6.0426   -0.8040   18.7628 C   0  0  0  0  0  0  0  0  0  0  0  0
    5.2331   -0.6638   17.6831 N   0  0  0  0  0  0  0  0  0  0  0  0
    4.1749    0.0963   17.8310 C   0  0  0  0  0  0  0  0  0  0  0  0
    3.8255    0.7490   19.0438 C   0  0  0  0  0  0  0  0  0  0  0  0
    2.6450    1.5249   19.1677 C   0  0  0  0  0  0  0  0  0  0  0  0
    2.3268    2.1291   20.3516 C   0  0  0  0  0  0  0  0  0  0  0  0
    3.1957    2.0064   21.4582 C   0  0  0  0  0  0  0  0  0  0  0  0
    4.3518    1.2701   21.3607 C   0  0  0  0  0  0  0  0  0  0  0  0
    4.6974    0.6142   20.1482 C   0  0  0  0  0  0  0  0  0  0  0  0
    9.0106   -0.3981   23.4843 C   0  0  0  0  0  0  0  0  0  0  0  0
   10.2911    0.1070   23.6598 C   0  0  0  0  0  0  0  0  0  0  0  0
  1  2  3  0
  2  3  1  0
  3  4  2  0
  4  5  1  0
  5  6  2  0
  6  7  1  0
  7  8  1  0
  8  9  1  0
  9 10  2  0
 10 11  1  0
 11 12  2  0
 12 13  1  0
 13 14  1  0
 13 15  2  0
  7 16  1  0
 16 17  2  0
 16 18  1  0
 18 19  1  0
 19 20  2  0
 20 21  1  0
 21 22  2  0
 22 23  1  0
 23 24  2  0
 24 25  1  0
 25 26  2  0
 26 27  1  0
 27 28  2  0
  6 29  1  0
 29 30  2  0
 30  3  1  0
 15  9  1  0
 28 19  1  0
 28 23  1  0
M  END
>  <cnnaffinities>  (75) 
[6.17735, 6.17829, 6.03583, 6.21936, 6.21921, 6.03566, 5.84415, 5.84335, 5.73413, 5.73436, 5.96366, 5.95276, 5.97296, 5.97249, 6.45635, 6.44642, 6.23516]

>  <score>  (75) 
6.17735

>  <index>  (75) 
37

>  <Smiles>  (75) 
N#Cc1c(c(c(N(C(c2c(c(c(c(Cl)c2[H])[H])[H])[H])([H])[H])C(=O)C(c2c(nc(c3c(c(c(c(c23)[H])[H])[H])[H])[H])[H])([H])[H])c(c1[H])[H])[H])[H]

>  <h>  (75) 
<NA>

>  <Training>  (75) 
True

>  <Success>  (75) 
True

>  <enamine_searched>  (75) 
False

>  <enamine_id>  (75) 
nan

$$$$

     RDKit          3D

 40 45  0  0  0  0  0  0  0  0999 V2000
    8.0843    6.1538   22.1664 C   0  0  0  0  0  0  0  0  0  0  0  0
    7.7225    4.7611   21.8104 N   0  0  0  0  0  0  0  0  0  0  0  0
    6.7904    4.1080   22.7662 C   0  0  0  0  0  0  0  0  0  0  0  0
    7.5436    3.6069   24.0014 C   0  0  0  0  0  0  0  0  0  0  0  0
    8.4842    2.5474   23.6358 N   0  0  0  0  0  0  0  0  0  0  0  0
    8.0021    1.1800   23.6621 C   0  0  0  0  0  0  0  0  0  0  0  0
    8.5233    0.2983   22.4864 C   0  0  2  0  0  0  0  0  0  0  0  0
    7.7940    0.6983   21.1871 C   0  0  0  0  0  0  0  0  0  0  0  0
    7.9627    1.7067   20.5337 O   0  0  0  0  0  0  0  0  0  0  0  0
    6.8642   -0.2777   20.8950 N   0  0  0  0  0  0  0  0  0  0  0  0
    5.9079   -0.1032   19.8656 C   0  0  0  0  0  0  0  0  0  0  0  0
    6.1101   -0.6911   18.6461 C   0  0  0  0  0  0  0  0  0  0  0  0
    5.2849   -0.5438   17.5815 N   0  0  0  0  0  0  0  0  0  0  0  0
    4.2116    0.1932   17.7482 C   0  0  0  0  0  0  0  0  0  0  0  0
    3.8665    0.8368   18.9732 C   0  0  0  0  0  0  0  0  0  0  0  0
    2.7009    1.6378   19.1118 C   0  0  0  0  0  0  0  0  0  0  0  0
    2.3846    2.2032   20.3162 C   0  0  0  0  0  0  0  0  0  0  0  0
    3.2167    2.0099   21.4400 C   0  0  0  0  0  0  0  0  0  0  0  0
    4.3644    1.2657   21.3236 C   0  0  0  0  0  0  0  0  0  0  0  0
    4.7236    0.6670   20.0815 C   0  0  0  0  0  0  0  0  0  0  0  0
    6.7390   -1.3025   21.9110 C   0  0  0  0  0  0  0  0  0  0  0  0
    8.0601   -1.1739   22.6720 C   0  0  2  0  0  0  0  0  0  0  0  0
    7.9669   -1.6470   24.1186 C   0  0  0  0  0  0  0  0  0  0  0  0
    9.1791   -1.3986   24.8099 O   0  0  0  0  0  0  0  0  0  0  0  0
   10.1321   -2.4184   24.6371 C   0  0  0  0  0  0  0  0  0  0  0  0
    9.9837   -3.4692   25.7291 C   0  0  0  0  0  0  0  0  0  0  0  0
   10.4928   -2.9753   27.1182 C   0  0  0  0  0  0  0  0  0  0  0  0
   11.7677   -4.2661   27.1171 S   0  0  0  0  0  0  0  0  0  0  0  0
   13.1067   -3.7135   26.9876 O   0  0  0  0  0  0  0  0  0  0  0  0
   11.4608   -5.2915   28.1030 O   0  0  0  0  0  0  0  0  0  0  0  0
   10.9976   -4.6076   25.5132 C   0  0  0  0  0  0  0  0  0  0  0  0
   10.0279    0.4887   22.3914 C   0  0  0  0  0  0  0  0  0  0  0  0
   10.9007   -0.5002   21.9238 C   0  0  0  0  0  0  0  0  0  0  0  0
   12.2676   -0.2731   21.9061 C   0  0  0  0  0  0  0  0  0  0  0  0
   13.3120   -1.5489   21.3484 Cl  0  0  0  0  0  0  0  0  0  0  0  0
   12.8265    0.9402   22.3049 C   0  0  0  0  0  0  0  0  0  0  0  0
   11.9650    1.9408   22.6998 C   0  0  0  0  0  0  0  0  0  0  0  0
   10.5897    1.7206   22.7492 C   0  0  0  0  0  0  0  0  0  0  0  0
    9.7017    2.8585   23.1279 C   0  0  0  0  0  0  0  0  0  0  0  0
   10.0449    4.0237   22.9164 O   0  0  0  0  0  0  0  0  0  0  0  0
  1  2  1  0
  2  3  1  0
  3  4  1  0
  4  5  1  0
  5  6  1  0
  7  6  1  1
  7  8  1  0
  8  9  2  0
  8 10  1  0
 10 11  1  0
 11 12  2  0
 12 13  1  0
 13 14  2  0
 14 15  1  0
 15 16  2  0
 16 17  1  0
 17 18  2  0
 18 19  1  0
 19 20  2  0
 10 21  1  0
 21 22  1  0
 22 23  1  1
 23 24  1  0
 24 25  1  0
 25 26  1  0
 26 27  1  0
 27 28  1  0
 28 29  2  0
 28 30  2  0
 28 31  1  0
  7 32  1  0
 32 33  2  0
 33 34  1  0
 34 35  1  0
 34 36  2  0
 36 37  1  0
 37 38  2  0
 38 39  1  0
 39 40  2  0
 39  5  1  0
 22  7  1  0
 31 26  1  0
 38 32  1  0
 20 11  1  0
 20 15  1  0
M  CHG  1   2   1
M  END
>  <cnnaffinities>  (76) 
[6.7765]

>  <score>  (76) 
6.7765

>  <index>  (76) 
38

>  <Smiles>  (76) 
C([N+](C(C(N1C([C@@]2(C(=O)N(c3c(nc(c4c(c(c(c(c34)[H])[H])[H])[H])[H])[H])C([C@@]2(C(OC(C2(C(S(=O)(=O)C2([H])[H])([H])[H])[H])([H])[H])([H])[H])[H])([H])[H])c2c(c(Cl)c(c(c2C1=O)[H])[H])[H])([H])[H])([H])[H])([H])[H])([H])[H])([H])([H])[H]

>  <h>  (76) 
<NA>

>  <Training>  (76) 
True

>  <Success>  (76) 
True

>  <enamine_searched>  (76) 
False

>  <enamine_id>  (76) 
nan

$$$$

     RDKit          3D

 32 36  0  0  0  0  0  0  0  0999 V2000
   -7.3038    3.4495  -21.8985 C   0  0  0  0  0  0  0  0  0  0  0  0
   -8.1377    2.9707  -22.9847 N   0  0  0  0  0  0  0  0  0  0  0  0
   -7.5593    2.2561  -23.9796 C   0  0  0  0  0  0  0  0  0  0  0  0
   -6.3439    2.1252  -24.0710 O   0  0  0  0  0  0  0  0  0  0  0  0
   -8.5076    1.6296  -25.0094 C   0  0  0  0  0  0  0  0  0  0  0  0
   -9.2534    0.4905  -24.5043 N   0  0  0  0  0  0  0  0  0  0  0  0
   -8.5663   -0.7709  -24.3090 C   0  0  0  0  0  0  0  0  0  0  0  0
   -8.9914   -1.4586  -22.9840 C   0  0  2  0  0  0  0  0  0  0  0  0
   -8.4404   -0.6672  -21.7676 C   0  0  0  0  0  0  0  0  0  0  0  0
   -8.8314    0.4048  -21.3480 O   0  0  0  0  0  0  0  0  0  0  0  0
   -7.4086   -1.3774  -21.1991 N   0  0  0  0  0  0  0  0  0  0  0  0
   -6.6069   -0.8053  -20.1734 C   0  0  0  0  0  0  0  0  0  0  0  0
   -6.9088   -1.0422  -18.8570 C   0  0  0  0  0  0  0  0  0  0  0  0
   -6.2081   -0.5508  -17.8043 N   0  0  0  0  0  0  0  0  0  0  0  0
   -5.1698    0.2076  -18.0731 C   0  0  0  0  0  0  0  0  0  0  0  0
   -4.7333    0.5325  -19.3901 C   0  0  0  0  0  0  0  0  0  0  0  0
   -3.6037    1.3629  -19.6358 C   0  0  0  0  0  0  0  0  0  0  0  0
   -3.2127    1.6491  -20.9166 C   0  0  0  0  0  0  0  0  0  0  0  0
   -3.9314    1.1157  -22.0112 C   0  0  0  0  0  0  0  0  0  0  0  0
   -5.0273    0.3126  -21.7982 C   0  0  0  0  0  0  0  0  0  0  0  0
   -5.4675    0.0065  -20.4811 C   0  0  0  0  0  0  0  0  0  0  0  0
   -7.0885   -2.6148  -21.8821 C   0  0  0  0  0  0  0  0  0  0  0  0
   -8.2973   -2.8539  -22.8178 C   0  0  2  0  0  0  0  0  0  0  0  0
   -7.8912   -3.5978  -24.0991 C   0  0  0  0  0  0  0  0  0  0  0  0
  -10.5131   -1.4638  -22.9146 C   0  0  0  0  0  0  0  0  0  0  0  0
  -11.1761   -2.2991  -22.0086 C   0  0  0  0  0  0  0  0  0  0  0  0
  -12.5577   -2.3007  -21.9141 C   0  0  0  0  0  0  0  0  0  0  0  0
  -13.3138   -1.4358  -22.7092 C   0  0  0  0  0  0  0  0  0  0  0  0
  -12.6713   -0.5483  -23.5524 C   0  0  0  0  0  0  0  0  0  0  0  0
  -11.2776   -0.5303  -23.6273 C   0  0  0  0  0  0  0  0  0  0  0  0
  -10.6127    0.5898  -24.3767 C   0  0  0  0  0  0  0  0  0  0  0  0
  -11.2384    1.5509  -24.8023 O   0  0  0  0  0  0  0  0  0  0  0  0
  1  2  1  0
  2  3  1  0
  3  4  2  0
  3  5  1  0
  5  6  1  0
  6  7  1  0
  8  7  1  6
  8  9  1  0
  9 10  2  0
  9 11  1  0
 11 12  1  0
 12 13  2  0
 13 14  1  0
 14 15  2  0
 15 16  1  0
 16 17  2  0
 17 18  1  0
 18 19  2  0
 19 20  1  0
 20 21  2  0
 11 22  1  0
 22 23  1  0
 23 24  1  6
  8 25  1  0
 25 26  2  0
 26 27  1  0
 27 28  2  0
 28 29  1  0
 29 30  2  0
 30 31  1  0
 31 32  2  0
 31  6  1  0
 23  8  1  0
 30 25  1  0
 21 12  1  0
 21 16  1  0
M  END
>  <cnnaffinities>  (77) 
[6.28833, 6.27005]

>  <score>  (77) 
6.28833

>  <index>  (77) 
37

>  <Smiles>  (77) 
C(N(C(=O)C(N1C([C@@]2(C(=O)N(c3c(nc(c4c(c(c(c(c34)[H])[H])[H])[H])[H])[H])C([C@@]2(C([H])([H])[H])[H])([H])[H])c2c(c(c(c(c2C1=O)[H])[H])[H])[H])([H])[H])([H])[H])[H])([H])([H])[H]

>  <h>  (77) 
<NA>

>  <Training>  (77) 
True

>  <Success>  (77) 
True

>  <enamine_searched>  (77) 
False

>  <enamine_id>  (77) 
nan

$$$$

     RDKit          3D

 22 24  0  0  0  0  0  0  0  0999 V2000
   -8.1633   -4.7066  -26.5354 C   0  0  0  0  0  0  0  0  0  0  0  0
   -8.6597   -4.9679  -25.1129 C   0  0  1  0  0  0  0  0  0  0  0  0
   -7.6025   -5.5337  -24.1726 C   0  0  0  0  0  0  0  0  0  0  0  0
   -6.6322   -4.5304  -23.5519 C   0  0  1  0  0  0  0  0  0  0  0  0
   -5.4548   -4.1814  -24.4614 C   0  0  0  0  0  0  0  0  0  0  0  0
   -7.3284   -3.3427  -23.0086 N   0  0  0  0  0  0  0  0  0  0  0  0
   -6.7260   -2.7049  -21.9383 C   0  0  0  0  0  0  0  0  0  0  0  0
   -5.6818   -3.1192  -21.4562 O   0  0  0  0  0  0  0  0  0  0  0  0
   -7.4074   -1.4700  -21.2819 C   0  0  0  0  0  0  0  0  0  0  0  0
   -6.5798   -0.8338  -20.1851 C   0  0  0  0  0  0  0  0  0  0  0  0
   -6.8723   -1.0479  -18.8622 C   0  0  0  0  0  0  0  0  0  0  0  0
   -6.1948   -0.5429  -17.7926 N   0  0  0  0  0  0  0  0  0  0  0  0
   -5.1612    0.2203  -18.0614 C   0  0  0  0  0  0  0  0  0  0  0  0
   -4.7231    0.5286  -19.3793 C   0  0  0  0  0  0  0  0  0  0  0  0
   -3.5947    1.3571  -19.6217 C   0  0  0  0  0  0  0  0  0  0  0  0
   -3.1921    1.6349  -20.9006 C   0  0  0  0  0  0  0  0  0  0  0  0
   -3.9046    1.0919  -21.9941 C   0  0  0  0  0  0  0  0  0  0  0  0
   -5.0009    0.2901  -21.7856 C   0  0  0  0  0  0  0  0  0  0  0  0
   -5.4460   -0.0136  -20.4726 C   0  0  0  0  0  0  0  0  0  0  0  0
   -8.4101   -2.7241  -23.7917 C   0  0  1  0  0  0  0  0  0  0  0  0
   -7.9411   -1.6660  -24.8005 C   0  0  0  0  0  0  0  0  0  0  0  0
   -9.3300   -3.7829  -24.4198 C   0  0  0  0  0  0  0  0  0  0  0  0
  2  1  1  6
  2  3  1  0
  3  4  1  0
  4  5  1  6
  4  6  1  0
  6  7  1  0
  7  8  2  0
  7  9  1  0
  9 10  1  0
 10 11  2  0
 11 12  1  0
 12 13  2  0
 13 14  1  0
 14 15  2  0
 15 16  1  0
 16 17  2  0
 17 18  1  0
 18 19  2  0
  6 20  1  0
 20 21  1  6
 20 22  1  0
 22  2  1  0
 19 10  1  0
 19 14  1  0
M  END
>  <cnnaffinities>  (78) 
[5.17551]

>  <score>  (78) 
5.17551

>  <index>  (78) 
38

>  <Smiles>  (78) 
C([C@]1(C([C@@](C([H])([H])[H])(N(C(=O)C(c2c(nc(c3c(c(c(c(c23)[H])[H])[H])[H])[H])[H])([H])[H])[C@@](C([H])([H])[H])(C1([H])[H])[H])[H])([H])[H])[H])([H])([H])[H]

>  <h>  (78) 
<NA>

>  <Training>  (78) 
True

>  <Success>  (78) 
True

>  <enamine_searched>  (78) 
False

>  <enamine_id>  (78) 
nan

$$$$

     RDKit          3D

 25 29  0  0  0  0  0  0  0  0999 V2000
   -7.2402    0.9282  -25.5985 C   0  0  0  0  0  0  0  0  0  0  0  0
   -6.5114   -0.3938  -25.4052 C   0  0  0  0  0  0  0  0  0  0  0  0
   -5.2991   -0.5058  -25.5317 O   0  0  0  0  0  0  0  0  0  0  0  0
   -7.2732   -1.4752  -25.0822 N   0  0  0  0  0  0  0  0  0  0  0  0
   -6.6394   -2.7666  -24.7372 C   0  0  0  0  0  0  0  0  0  0  0  0
   -7.8112   -3.4854  -24.0460 C   0  0  2  0  0  0  0  0  0  0  0  0
   -9.0037   -2.9598  -24.8628 C   0  0  0  0  0  0  0  0  0  0  0  0
   -8.6613   -1.4868  -24.5565 C   0  0  1  0  0  0  0  0  0  0  0  0
   -8.5648   -1.5543  -23.0864 C   0  0  0  0  0  0  0  0  0  0  0  0
   -8.1635   -0.6124  -22.0838 C   0  0  0  0  0  0  0  0  0  0  0  0
   -8.3445    0.5792  -21.9878 O   0  0  0  0  0  0  0  0  0  0  0  0
   -7.4003   -1.3909  -21.1799 N   0  0  0  0  0  0  0  0  0  0  0  0
   -6.5824   -0.8257  -20.1689 C   0  0  0  0  0  0  0  0  0  0  0  0
   -6.8945   -1.0594  -18.8560 C   0  0  0  0  0  0  0  0  0  0  0  0
   -6.2072   -0.5471  -17.8055 N   0  0  0  0  0  0  0  0  0  0  0  0
   -5.1737    0.2126  -18.0777 C   0  0  0  0  0  0  0  0  0  0  0  0
   -4.7311    0.5269  -19.3947 C   0  0  0  0  0  0  0  0  0  0  0  0
   -3.5971    1.3519  -19.6295 C   0  0  0  0  0  0  0  0  0  0  0  0
   -3.1860    1.6230  -20.9052 C   0  0  0  0  0  0  0  0  0  0  0  0
   -3.8841    1.0709  -22.0047 C   0  0  0  0  0  0  0  0  0  0  0  0
   -4.9784    0.2671  -21.8048 C   0  0  0  0  0  0  0  0  0  0  0  0
   -5.4473   -0.0113  -20.4878 C   0  0  0  0  0  0  0  0  0  0  0  0
   -7.2571   -2.7114  -21.6273 C   0  0  0  0  0  0  0  0  0  0  0  0
   -6.5491   -3.5622  -21.1451 O   0  0  0  0  0  0  0  0  0  0  0  0
   -8.0618   -2.7870  -22.7614 N   0  0  0  0  0  0  0  0  0  0  0  0
  1  2  1  0
  2  3  2  0
  2  4  1  0
  4  5  1  0
  6  5  1  6
  6  7  1  0
  7  8  1  0
  8  9  1  0
  9 10  2  0
 10 11  1  0
 10 12  1  0
 12 13  1  0
 13 14  2  0
 14 15  1  0
 15 16  2  0
 16 17  1  0
 17 18  2  0
 18 19  1  0
 19 20  2  0
 20 21  1  0
 21 22  2  0
 12 23  1  0
 23 24  2  0
 23 25  1  0
  8  4  1  6
 25  9  1  0
 25  6  1  0
 22 13  1  0
 22 17  1  0
M  CHG  1  11  -1
M  END
>  <cnnaffinities>  (79) 
[5.32899, 5.36626, 5.29928, 5.31956, 5.46173]

>  <score>  (79) 
5.32899

>  <index>  (79) 
39

>  <Smiles>  (79) 
C(C(=O)N1C([C@@]2(C([C@]1(c1c([O-])n(c3c(nc(c4c(c(c(c(c34)[H])[H])[H])[H])[H])[H])c(=O)n21)[H])([H])[H])[H])([H])[H])([H])([H])[H]

>  <h>  (79) 
<NA>

>  <Training>  (79) 
True

>  <Success>  (79) 
True

>  <enamine_searched>  (79) 
False

>  <enamine_id>  (79) 
nan

$$$$

     RDKit          3D

 20 22  0  0  0  0  0  0  0  0999 V2000
   -6.4970    1.4265  -26.8583 C   0  0  0  0  0  0  0  0  0  0  0  0
   -7.5012    1.0189  -25.7825 C   0  0  0  0  0  0  0  0  0  0  0  0
   -7.3101   -0.4350  -25.3652 C   0  0  0  0  0  0  0  0  0  0  0  0
   -8.2780   -0.8314  -24.2609 C   0  0  0  0  0  0  0  0  0  0  0  0
   -8.1772    0.0874  -23.1317 N   0  0  0  0  0  0  0  0  0  0  0  0
   -8.3751   -0.3124  -21.8068 C   0  0  0  0  0  0  0  0  0  0  0  0
   -9.1732    0.2282  -21.0727 O   0  0  0  0  0  0  0  0  0  0  0  0
   -7.4425   -1.4117  -21.2717 C   0  0  0  0  0  0  0  0  0  0  0  0
   -6.5705   -0.8346  -20.1740 C   0  0  0  0  0  0  0  0  0  0  0  0
   -6.8773   -1.0415  -18.8546 C   0  0  0  0  0  0  0  0  0  0  0  0
   -6.1962   -0.5354  -17.7898 N   0  0  0  0  0  0  0  0  0  0  0  0
   -5.1580    0.2200  -18.0621 C   0  0  0  0  0  0  0  0  0  0  0  0
   -4.7240    0.5338  -19.3782 C   0  0  0  0  0  0  0  0  0  0  0  0
   -3.6027    1.3685  -19.6214 C   0  0  0  0  0  0  0  0  0  0  0  0
   -3.2131    1.6629  -20.9001 C   0  0  0  0  0  0  0  0  0  0  0  0
   -3.9322    1.1290  -21.9941 C   0  0  0  0  0  0  0  0  0  0  0  0
   -5.0193    0.3166  -21.7849 C   0  0  0  0  0  0  0  0  0  0  0  0
   -5.4497   -0.0022  -20.4702 C   0  0  0  0  0  0  0  0  0  0  0  0
   -8.3911    1.4916  -23.4642 C   0  0  0  0  0  0  0  0  0  0  0  0
   -7.4154    1.9209  -24.5561 C   0  0  0  0  0  0  0  0  0  0  0  0
  1  2  1  0
  2  3  1  0
  3  4  1  0
  4  5  1  0
  5  6  1  0
  6  7  2  0
  6  8  1  0
  8  9  1  0
  9 10  2  0
 10 11  1  0
 11 12  2  0
 12 13  1  0
 13 14  2  0
 14 15  1  0
 15 16  2  0
 16 17  1  0
 17 18  2  0
  5 19  1  0
 19 20  1  0
 20  2  1  0
 18  9  1  0
 18 13  1  0
M  END
>  <cnnaffinities>  (80) 
[4.79914, 4.79912, 4.86207, 4.86209, 4.59854, 4.59985, 4.94982, 4.8191, 4.81907, 4.97359, 4.97497, 4.82441, 4.70518, 4.70519]

>  <score>  (80) 
4.79914

>  <index>  (80) 
40

>  <Smiles>  (80) 
C(C1(C(C(N(C(=O)C(c2c(nc(c3c(c(c(c(c23)[H])[H])[H])[H])[H])[H])([H])[H])C(C1([H])[H])([H])[H])([H])[H])([H])[H])[H])([H])([H])[H]

>  <h>  (80) 
<NA>

>  <Training>  (80) 
True

>  <Success>  (80) 
True

>  <enamine_searched>  (80) 
False

>  <enamine_id>  (80) 
nan

$$$$

     RDKit          3D

 39 43  0  0  0  0  0  0  0  0999 V2000
   -7.4617    3.0974  -22.2108 C   0  0  0  0  0  0  0  0  0  0  0  0
   -8.5532    2.4726  -22.9242 N   0  0  0  0  0  0  0  0  0  0  0  0
   -8.3287    1.6657  -23.9887 C   0  0  0  0  0  0  0  0  0  0  0  0
   -7.2075    1.3793  -24.3884 O   0  0  0  0  0  0  0  0  0  0  0  0
   -9.6025    1.1564  -24.6716 C   0  0  0  0  0  0  0  0  0  0  0  0
  -10.1293   -0.0526  -24.0621 N   0  0  0  0  0  0  0  0  0  0  0  0
   -9.2778   -1.2231  -23.9536 C   0  0  0  0  0  0  0  0  0  0  0  0
   -9.3951   -1.9093  -22.5639 C   0  0  2  0  0  0  0  0  0  0  0  0
   -8.7946   -0.9670  -21.4776 C   0  0  0  0  0  0  0  0  0  0  0  0
   -9.3212    0.0189  -20.9984 O   0  0  0  0  0  0  0  0  0  0  0  0
   -7.5114   -1.3914  -21.1870 N   0  0  0  0  0  0  0  0  0  0  0  0
   -6.7267   -0.8043  -20.1586 C   0  0  0  0  0  0  0  0  0  0  0  0
   -7.0260   -1.0459  -18.8385 C   0  0  0  0  0  0  0  0  0  0  0  0
   -6.3077   -0.5720  -17.7911 N   0  0  0  0  0  0  0  0  0  0  0  0
   -5.2556    0.1635  -18.0638 C   0  0  0  0  0  0  0  0  0  0  0  0
   -4.8262    0.4924  -19.3802 C   0  0  0  0  0  0  0  0  0  0  0  0
   -3.6838    1.3041  -19.6258 C   0  0  0  0  0  0  0  0  0  0  0  0
   -3.3112    1.6101  -20.9060 C   0  0  0  0  0  0  0  0  0  0  0  0
   -4.0676    1.1337  -21.9999 C   0  0  0  0  0  0  0  0  0  0  0  0
   -5.1834    0.3539  -21.7874 C   0  0  0  0  0  0  0  0  0  0  0  0
   -5.5845    0.0003  -20.4701 C   0  0  0  0  0  0  0  0  0  0  0  0
   -7.0886   -2.5410  -21.9654 C   0  0  0  0  0  0  0  0  0  0  0  0
   -8.4330   -3.1363  -22.4476 C   0  0  2  0  0  0  0  0  0  0  0  0
   -8.3222   -3.9802  -23.7243 C   0  0  0  0  0  0  0  0  0  0  0  0
   -7.3094   -5.4480  -23.5098 S   0  0  0  0  0  0  0  0  0  0  0  0
   -5.9263   -5.0129  -23.3935 O   0  0  0  0  0  0  0  0  0  0  0  0
   -7.9293   -6.2761  -22.4856 O   0  0  0  0  0  0  0  0  0  0  0  0
   -7.4276   -6.2691  -24.9482 N   0  0  0  0  0  0  0  0  0  0  0  0
   -8.6723   -6.9766  -25.2080 C   0  0  0  0  0  0  0  0  0  0  0  0
   -6.7387   -5.6931  -26.0944 C   0  0  0  0  0  0  0  0  0  0  0  0
  -10.8841   -2.1681  -22.3490 C   0  0  0  0  0  0  0  0  0  0  0  0
  -11.3697   -3.2006  -21.5416 C   0  0  0  0  0  0  0  0  0  0  0  0
  -12.7033   -3.2318  -21.1685 C   0  0  0  0  0  0  0  0  0  0  0  0
  -13.1337   -4.0967  -20.2351 F   0  0  0  0  0  0  0  0  0  0  0  0
  -13.6519   -2.3617  -21.6816 C   0  0  0  0  0  0  0  0  0  0  0  0
  -13.1921   -1.3811  -22.5327 C   0  0  0  0  0  0  0  0  0  0  0  0
  -11.8379   -1.2643  -22.8450 C   0  0  0  0  0  0  0  0  0  0  0  0
  -11.4349   -0.0746  -23.6610 C   0  0  0  0  0  0  0  0  0  0  0  0
  -12.2289    0.8131  -23.9284 O   0  0  0  0  0  0  0  0  0  0  0  0
  1  2  1  0
  2  3  1  0
  3  4  2  0
  3  5  1  0
  5  6  1  0
  6  7  1  0
  8  7  1  6
  8  9  1  0
  9 10  2  0
  9 11  1  0
 11 12  1  0
 12 13  2  0
 13 14  1  0
 14 15  2  0
 15 16  1  0
 16 17  2  0
 17 18  1  0
 18 19  2  0
 19 20  1  0
 20 21  2  0
 11 22  1  0
 22 23  1  0
 23 24  1  6
 24 25  1  0
 25 26  2  0
 25 27  2  0
 25 28  1  0
 28 29  1  0
 28 30  1  0
  8 31  1  0
 31 32  2  0
 32 33  1  0
 33 34  1  0
 33 35  2  0
 35 36  1  0
 36 37  2  0
 37 38  1  0
 38 39  2  0
 38  6  1  0
 23  8  1  0
 37 31  1  0
 21 12  1  0
 21 16  1  0
M  END
>  <cnnaffinities>  (81) 
[7.11468, 7.07417, 7.08381, 7.11663, 6.70516]

>  <score>  (81) 
7.11468

>  <index>  (81) 
41

>  <Smiles>  (81) 
C(N(C(=O)C(N1C([C@@]2(C(=O)N(c3c(nc(c4c(c(c(c(c34)[H])[H])[H])[H])[H])[H])C([C@@]2(C(S(=O)(=O)N(C([H])([H])[H])C([H])([H])[H])([H])[H])[H])([H])[H])c2c(c(F)c(c(c2C1=O)[H])[H])[H])([H])[H])([H])[H])[H])([H])([H])[H]

>  <h>  (81) 
<NA>

>  <Training>  (81) 
True

>  <Success>  (81) 
True

>  <enamine_searched>  (81) 
False

>  <enamine_id>  (81) 
nan

$$$$

     RDKit          3D

 26 29  0  0  0  0  0  0  0  0999 V2000
   -9.5755   -0.1425  -23.8640 N   0  0  0  0  0  0  0  0  0  0  0  0
   -8.5769    0.0899  -22.8859 C   0  0  0  0  0  0  0  0  0  0  0  0
   -8.9279    0.4173  -21.7456 O   0  0  0  0  0  0  0  0  0  0  0  0
   -7.1360   -0.0396  -23.1608 C   0  0  2  0  0  0  0  0  0  0  0  0
   -6.5916   -1.3457  -22.6041 C   0  0  0  0  0  0  0  0  0  0  0  0
   -6.6588   -1.4803  -21.1866 N   0  0  0  0  0  0  0  0  0  0  0  0
   -5.6064   -0.3359  -20.4694 S   0  0  0  0  0  0  0  0  0  0  0  0
   -4.2298   -0.9727  -20.4338 O   0  0  0  0  0  0  0  0  0  0  0  0
   -6.0407    0.0426  -19.0830 O   0  0  0  0  0  0  0  0  0  0  0  0
   -5.5697    1.0545  -21.5302 C   0  0  0  0  0  0  0  0  0  0  0  0
   -4.7703    2.1129  -21.1218 C   0  0  0  0  0  0  0  0  0  0  0  0
   -4.6652    3.2261  -21.8919 C   0  0  0  0  0  0  0  0  0  0  0  0
   -5.3584    3.2833  -23.0711 C   0  0  0  0  0  0  0  0  0  0  0  0
   -5.2016    4.7317  -24.0415 Cl  0  0  0  0  0  0  0  0  0  0  0  0
   -6.1635    2.2110  -23.4768 C   0  0  0  0  0  0  0  0  0  0  0  0
   -6.2868    1.0735  -22.7140 C   0  0  0  0  0  0  0  0  0  0  0  0
  -10.1537   -3.0342  -22.9353 C   0  0  0  0  0  0  0  0  0  0  0  0
  -11.4211   -2.3554  -22.8698 N   0  0  0  0  0  0  0  0  0  0  0  0
  -12.5597   -2.9723  -22.4513 N   0  0  0  0  0  0  0  0  0  0  0  0
  -13.5804   -2.1386  -22.5046 C   0  0  0  0  0  0  0  0  0  0  0  0
  -13.1057   -0.9261  -22.9744 C   0  0  0  0  0  0  0  0  0  0  0  0
  -13.7216    0.2587  -23.2282 C   0  0  0  0  0  0  0  0  0  0  0  0
  -13.0018    1.2785  -23.6973 N   0  0  0  0  0  0  0  0  0  0  0  0
  -11.6711    1.1292  -23.9157 C   0  0  0  0  0  0  0  0  0  0  0  0
  -10.9822   -0.0463  -23.6791 C   0  0  0  0  0  0  0  0  0  0  0  0
  -11.7351   -1.1170  -23.1887 C   0  0  0  0  0  0  0  0  0  0  0  0
 17 18  1  0
 18 19  1  0
 19 20  2  0
 20 21  1  0
 21 22  2  0
 22 23  1  0
 23 24  2  0
 24 25  1  0
 25  1  1  0
  1  2  1  0
  2  3  2  0
  4  2  1  1
  4  5  1  0
  5  6  1  0
  6  7  1  0
  7  8  2  0
  7  9  2  0
  7 10  1  0
 10 11  2  0
 11 12  1  0
 12 13  2  0
 13 14  1  0
 13 15  1  0
 15 16  2  0
 25 26  2  0
 26 18  1  0
 26 21  1  0
 16  4  1  0
 16 10  1  0
M  END
>  <minimizedAffinity>  (82) 
-6.52756

>  <CNNscore>  (82) 
0.5316313505

>  <CNNaffinity>  (82) 
5.8649635315

>  <CNN_VS>  (82) 
3.1179986000

>  <CNNaffinity_variance>  (82) 
0.0752605349

$$$$

     RDKit          3D

 35 39  0  0  0  0  0  0  0  0999 V2000
    8.8533   -2.0570   26.1991 C   0  0  0  0  0  0  0  0  0  0  0  0
    9.1388   -1.9704   24.7146 C   0  0  0  0  0  0  0  0  0  0  0  0
    7.9405   -1.5743   24.0677 O   0  0  0  0  0  0  0  0  0  0  0  0
    8.1090   -1.1817   22.7317 C   0  0  1  0  0  0  0  0  0  0  0  0
    6.7982   -1.3509   21.9689 C   0  0  0  0  0  0  0  0  0  0  0  0
    6.8591   -0.2988   20.9813 N   0  0  0  0  0  0  0  0  0  0  0  0
    5.8985   -0.1412   19.9521 C   0  0  0  0  0  0  0  0  0  0  0  0
    6.0846   -0.7752   18.7528 C   0  0  0  0  0  0  0  0  0  0  0  0
    5.2669   -0.6453   17.6812 N   0  0  0  0  0  0  0  0  0  0  0  0
    4.2071    0.1146   17.8291 C   0  0  0  0  0  0  0  0  0  0  0  0
    3.8660    0.7868   19.0385 C   0  0  0  0  0  0  0  0  0  0  0  0
    2.6883    1.5704   19.1610 C   0  0  0  0  0  0  0  0  0  0  0  0
    2.3703    2.1672   20.3500 C   0  0  0  0  0  0  0  0  0  0  0  0
    3.2373    2.0538   21.4595 C   0  0  0  0  0  0  0  0  0  0  0  0
    4.3988    1.3291   21.3580 C   0  0  0  0  0  0  0  0  0  0  0  0
    4.7345    0.6617   20.1451 C   0  0  0  0  0  0  0  0  0  0  0  0
    7.7905    0.6831   21.2413 C   0  0  0  0  0  0  0  0  0  0  0  0
    7.9342    1.6824   20.5699 O   0  0  0  0  0  0  0  0  0  0  0  0
    8.5601    0.2937   22.5211 C   0  0  1  0  0  0  0  0  0  0  0  0
    8.1141    1.2012   23.6981 C   0  0  0  0  0  0  0  0  0  0  0  0
    8.6327    2.5581   23.5556 N   0  0  0  0  0  0  0  0  0  0  0  0
    7.8178    3.6563   24.0374 C   0  0  0  0  0  0  0  0  0  0  0  0
    6.6947    3.9758   23.0435 C   0  0  0  0  0  0  0  0  0  0  0  0
    5.5327    3.6736   23.2706 O   0  0  0  0  0  0  0  0  0  0  0  0
    7.0715    4.6249   21.9042 N   0  0  0  0  0  0  0  0  0  0  0  0
    6.0313    4.9755   20.9433 C   0  0  0  0  0  0  0  0  0  0  0  0
    9.9410    2.8057   23.2370 C   0  0  0  0  0  0  0  0  0  0  0  0
   10.4637    3.9012   23.4014 O   0  0  0  0  0  0  0  0  0  0  0  0
   10.7045    1.6515   22.6635 C   0  0  0  0  0  0  0  0  0  0  0  0
   12.0801    1.7987   22.4742 C   0  0  0  0  0  0  0  0  0  0  0  0
   12.8264    0.7641   21.9435 C   0  0  0  0  0  0  0  0  0  0  0  0
   12.1741   -0.4128   21.5843 C   0  0  0  0  0  0  0  0  0  0  0  0
   13.1069   -1.7243   20.9332 Cl  0  0  0  0  0  0  0  0  0  0  0  0
   10.8045   -0.5450   21.6977 C   0  0  0  0  0  0  0  0  0  0  0  0
   10.0537    0.4602   22.3178 C   0  0  0  0  0  0  0  0  0  0  0  0
  1  2  1  0
  2  3  1  0
  4  3  1  1
  4  5  1  0
  5  6  1  0
  6  7  1  0
  7  8  2  0
  8  9  1  0
  9 10  2  0
 10 11  1  0
 11 12  2  0
 12 13  1  0
 13 14  2  0
 14 15  1  0
 15 16  2  0
  6 17  1  0
 17 18  2  0
 17 19  1  0
 19 20  1  1
 20 21  1  0
 21 22  1  0
 22 23  1  0
 23 24  2  0
 23 25  1  0
 25 26  1  0
 21 27  1  0
 27 28  2  0
 27 29  1  0
 29 30  2  0
 30 31  1  0
 31 32  2  0
 32 33  1  0
 32 34  1  0
 34 35  2  0
 19  4  1  0
 35 29  1  0
 16  7  1  0
 35 19  1  0
 16 11  1  0
M  END
>  <cnnaffinities>  (83) 
[6.25716, 6.40616]

>  <score>  (83) 
6.25716

>  <index>  (83) 
39

>  <Smiles>  (83) 
C(C(O[C@]1(C(N(c2c(nc(c3c(c(c(c(c23)[H])[H])[H])[H])[H])[H])C(=O)[C@]21C(N(C(C(=O)N(C([H])([H])[H])[H])([H])[H])C(=O)c1c(c(c(Cl)c(c21)[H])[H])[H])([H])[H])([H])[H])[H])([H])[H])([H])([H])[H]

>  <h>  (83) 
<NA>

>  <Training>  (83) 
True

>  <Success>  (83) 
True

>  <enamine_searched>  (83) 
False

>  <enamine_id>  (83) 
nan

$$$$

     RDKit          3D

 40 45  0  0  0  0  0  0  0  0999 V2000
   -7.4058    3.4636  -21.9665 C   0  0  0  0  0  0  0  0  0  0  0  0
   -8.4587    2.8880  -22.7875 N   0  0  0  0  0  0  0  0  0  0  0  0
   -8.0885    2.1591  -23.8745 C   0  0  0  0  0  0  0  0  0  0  0  0
   -6.9107    1.9528  -24.1308 O   0  0  0  0  0  0  0  0  0  0  0  0
   -9.2032    1.5861  -24.7552 C   0  0  0  0  0  0  0  0  0  0  0  0
   -9.7692    0.3912  -24.1574 N   0  0  0  0  0  0  0  0  0  0  0  0
   -8.9391   -0.8029  -24.0631 C   0  0  0  0  0  0  0  0  0  0  0  0
   -9.2173   -1.6107  -22.7616 C   0  0  2  0  0  0  0  0  0  0  0  0
   -8.6661   -0.8019  -21.5545 C   0  0  0  0  0  0  0  0  0  0  0  0
   -9.1662    0.1715  -21.0277 O   0  0  0  0  0  0  0  0  0  0  0  0
   -7.4630   -1.3497  -21.1695 N   0  0  0  0  0  0  0  0  0  0  0  0
   -6.6636   -0.7743  -20.1525 C   0  0  0  0  0  0  0  0  0  0  0  0
   -6.9591   -1.0225  -18.8373 C   0  0  0  0  0  0  0  0  0  0  0  0
   -6.2427   -0.5578  -17.7835 N   0  0  0  0  0  0  0  0  0  0  0  0
   -5.1969    0.1879  -18.0568 C   0  0  0  0  0  0  0  0  0  0  0  0
   -4.7703    0.5211  -19.3747 C   0  0  0  0  0  0  0  0  0  0  0  0
   -3.6383    1.3482  -19.6133 C   0  0  0  0  0  0  0  0  0  0  0  0
   -3.2544    1.6494  -20.8915 C   0  0  0  0  0  0  0  0  0  0  0  0
   -3.9867    1.1453  -21.9904 C   0  0  0  0  0  0  0  0  0  0  0  0
   -5.0975    0.3600  -21.7878 C   0  0  0  0  0  0  0  0  0  0  0  0
   -5.5184    0.0238  -20.4698 C   0  0  0  0  0  0  0  0  0  0  0  0
   -7.0455   -2.4900  -21.9505 C   0  0  0  0  0  0  0  0  0  0  0  0
   -8.3320   -2.9039  -22.6803 C   0  0  2  0  0  0  0  0  0  0  0  0
   -7.9620   -3.6192  -23.9827 C   0  0  0  0  0  0  0  0  0  0  0  0
   -9.1413   -4.0706  -24.6619 N   0  0  0  0  0  0  0  0  0  0  0  0
   -9.1185   -4.6157  -25.9137 C   0  0  0  0  0  0  0  0  0  0  0  0
   -7.6794   -4.7248  -26.8889 S   0  0  0  0  0  0  0  0  0  0  0  0
   -8.6584   -5.4365  -28.1477 C   0  0  0  0  0  0  0  0  0  0  0  0
   -9.9050   -5.5979  -27.8568 N   0  0  0  0  0  0  0  0  0  0  0  0
  -10.1842   -5.1401  -26.5846 C   0  0  0  0  0  0  0  0  0  0  0  0
  -11.5414   -5.2769  -25.9757 C   0  0  0  0  0  0  0  0  0  0  0  0
  -10.7290   -1.7954  -22.6263 C   0  0  0  0  0  0  0  0  0  0  0  0
  -11.2983   -2.7903  -21.8139 C   0  0  0  0  0  0  0  0  0  0  0  0
  -12.6705   -2.8216  -21.6030 C   0  0  0  0  0  0  0  0  0  0  0  0
  -13.3790   -3.8904  -20.4289 Cl  0  0  0  0  0  0  0  0  0  0  0  0
  -13.5320   -1.9359  -22.2451 C   0  0  0  0  0  0  0  0  0  0  0  0
  -12.9848   -0.9594  -23.0438 C   0  0  0  0  0  0  0  0  0  0  0  0
  -11.6041   -0.8504  -23.1864 C   0  0  0  0  0  0  0  0  0  0  0  0
  -11.1080    0.3700  -23.8965 C   0  0  0  0  0  0  0  0  0  0  0  0
  -11.8603    1.2851  -24.2008 O   0  0  0  0  0  0  0  0  0  0  0  0
  1  2  1  0
  2  3  1  0
  3  4  2  0
  3  5  1  0
  5  6  1  0
  6  7  1  0
  8  7  1  6
  8  9  1  0
  9 10  2  0
  9 11  1  0
 11 12  1  0
 12 13  2  0
 13 14  1  0
 14 15  2  0
 15 16  1  0
 16 17  2  0
 17 18  1  0
 18 19  2  0
 19 20  1  0
 20 21  2  0
 11 22  1  0
 22 23  1  0
 23 24  1  6
 24 25  1  0
 25 26  1  0
 26 27  1  0
 27 28  1  0
 28 29  2  0
 29 30  1  0
 30 31  1  0
  8 32  1  0
 32 33  2  0
 33 34  1  0
 34 35  1  0
 34 36  2  0
 36 37  1  0
 37 38  2  0
 38 39  1  0
 39 40  2  0
 39  6  1  0
 23  8  1  0
 30 26  2  0
 38 32  1  0
 21 12  1  0
 21 16  1  0
M  END
>  <cnnaffinities>  (84) 
[6.81526, 6.84268, 7.20198, 7.04722]

>  <score>  (84) 
6.81526

>  <index>  (84) 
43

>  <Smiles>  (84) 
C(N(C(=O)C(N1C([C@@]2(C(=O)N(c3c(nc(c4c(c(c(c(c34)[H])[H])[H])[H])[H])[H])C([C@@]2(C(N(c2sc(nc2C([H])([H])[H])[H])[H])([H])[H])[H])([H])[H])c2c(c(Cl)c(c(c2C1=O)[H])[H])[H])([H])[H])([H])[H])[H])([H])([H])[H]

>  <h>  (84) 
<NA>

>  <Training>  (84) 
True

>  <Success>  (84) 
True

>  <enamine_searched>  (84) 
False

>  <enamine_id>  (84) 
nan

$$$$

     RDKit          3D

 35 39  0  0  0  0  0  0  0  0999 V2000
    8.2404    6.2779   26.1875 C   0  0  0  0  0  0  0  0  0  0  0  0
    8.2642    5.6948   24.8617 N   0  0  0  0  0  0  0  0  0  0  0  0
    7.5564    4.5510   24.6408 C   0  0  0  0  0  0  0  0  0  0  0  0
    6.8582    4.0025   25.4814 O   0  0  0  0  0  0  0  0  0  0  0  0
    7.7042    4.0134   23.2167 C   0  0  0  0  0  0  0  0  0  0  0  0
    8.6014    2.8769   23.1734 N   0  0  0  0  0  0  0  0  0  0  0  0
    8.1111    1.5566   23.5194 C   0  0  0  0  0  0  0  0  0  0  0  0
    8.5478    0.5057   22.4658 C   0  0  2  0  0  0  0  0  0  0  0  0
    7.7885    0.7458   21.1464 C   0  0  0  0  0  0  0  0  0  0  0  0
    7.9144    1.6805   20.3889 O   0  0  0  0  0  0  0  0  0  0  0  0
    6.8928   -0.2854   20.9535 N   0  0  0  0  0  0  0  0  0  0  0  0
    5.9011   -0.1585   19.9508 C   0  0  0  0  0  0  0  0  0  0  0  0
    6.0873   -0.7775   18.7442 C   0  0  0  0  0  0  0  0  0  0  0  0
    5.2588   -0.6550   17.6792 N   0  0  0  0  0  0  0  0  0  0  0  0
    4.1966    0.1008   17.8308 C   0  0  0  0  0  0  0  0  0  0  0  0
    3.8657    0.7762   19.0423 C   0  0  0  0  0  0  0  0  0  0  0  0
    2.6950    1.5689   19.1589 C   0  0  0  0  0  0  0  0  0  0  0  0
    2.3821    2.1771   20.3415 C   0  0  0  0  0  0  0  0  0  0  0  0
    3.2404    2.0533   21.4539 C   0  0  0  0  0  0  0  0  0  0  0  0
    4.3910    1.3098   21.3638 C   0  0  0  0  0  0  0  0  0  0  0  0
    4.7330    0.6448   20.1472 C   0  0  0  0  0  0  0  0  0  0  0  0
    6.8173   -1.2146   22.0597 C   0  0  0  0  0  0  0  0  0  0  0  0
    8.1073   -0.9364   22.8354 C   0  0  2  0  0  0  0  0  0  0  0  0
    7.9833   -1.2428   24.3335 C   0  0  0  0  0  0  0  0  0  0  0  0
    7.6989   -2.6672   24.5618 C   0  0  0  0  0  0  0  0  0  0  0  0
    7.4664   -3.7885   24.7232 N   0  0  0  0  0  0  0  0  0  0  0  0
   10.0445    0.6714   22.2629 C   0  0  0  0  0  0  0  0  0  0  0  0
   10.8003   -0.3790   21.7421 C   0  0  0  0  0  0  0  0  0  0  0  0
   12.1692   -0.2495   21.6157 C   0  0  0  0  0  0  0  0  0  0  0  0
   13.0791   -1.6057   21.0230 Cl  0  0  0  0  0  0  0  0  0  0  0  0
   12.8297    0.9432   21.9046 C   0  0  0  0  0  0  0  0  0  0  0  0
   12.0761    2.0149   22.3327 C   0  0  0  0  0  0  0  0  0  0  0  0
   10.7000    1.8850   22.5197 C   0  0  0  0  0  0  0  0  0  0  0  0
    9.9252    3.0960   22.9346 C   0  0  0  0  0  0  0  0  0  0  0  0
   10.4241    4.2165   22.9932 O   0  0  0  0  0  0  0  0  0  0  0  0
  1  2  1  0
  2  3  1  0
  3  4  2  0
  3  5  1  0
  5  6  1  0
  6  7  1  0
  8  7  1  1
  8  9  1  0
  9 10  2  0
  9 11  1  0
 11 12  1  0
 12 13  2  0
 13 14  1  0
 14 15  2  0
 15 16  1  0
 16 17  2  0
 17 18  1  0
 18 19  2  0
 19 20  1  0
 20 21  2  0
 11 22  1  0
 22 23  1  0
 23 24  1  1
 24 25  1  0
 25 26  3  0
  8 27  1  0
 27 28  2  0
 28 29  1  0
 29 30  1  0
 29 31  2  0
 31 32  1  0
 32 33  2  0
 33 34  1  0
 34 35  2  0
 34  6  1  0
 23  8  1  0
 33 27  1  0
 21 12  1  0
 21 16  1  0
M  END
>  <cnnaffinities>  (85) 
[6.13147, 6.52977, 6.11481, 6.01961]

>  <score>  (85) 
6.13147

>  <index>  (85) 
40

>  <Smiles>  (85) 
C(N(C(=O)C(N1C([C@@]2(C(=O)N(c3c(nc(c4c(c(c(c(c34)[H])[H])[H])[H])[H])[H])C([C@@]2(C(C#N)([H])[H])[H])([H])[H])c2c(c(Cl)c(c(c2C1=O)[H])[H])[H])([H])[H])([H])[H])[H])([H])([H])[H]

>  <h>  (85) 
<NA>

>  <Training>  (85) 
True

>  <Success>  (85) 
True

>  <enamine_searched>  (85) 
False

>  <enamine_id>  (85) 
nan

$$$$

     RDKit          3D

 35 39  0  0  0  0  0  0  0  0999 V2000
   -7.4077    3.3839  -21.7991 C   0  0  0  0  0  0  0  0  0  0  0  0
   -8.2898    2.9281  -22.8567 N   0  0  0  0  0  0  0  0  0  0  0  0
   -7.7173    2.2335  -23.8666 C   0  0  0  0  0  0  0  0  0  0  0  0
   -6.5004    2.1257  -23.9746 O   0  0  0  0  0  0  0  0  0  0  0  0
   -8.6638    1.6066  -24.8912 C   0  0  0  0  0  0  0  0  0  0  0  0
   -9.3846    0.4499  -24.3918 N   0  0  0  0  0  0  0  0  0  0  0  0
   -8.6723   -0.8059  -24.2289 C   0  0  0  0  0  0  0  0  0  0  0  0
   -9.0620   -1.5225  -22.9077 C   0  0  2  0  0  0  0  0  0  0  0  0
   -8.5147   -0.7314  -21.6884 C   0  0  0  0  0  0  0  0  0  0  0  0
   -8.9613    0.2931  -21.2150 O   0  0  0  0  0  0  0  0  0  0  0  0
   -7.4050   -1.3858  -21.2004 N   0  0  0  0  0  0  0  0  0  0  0  0
   -6.6057   -0.8102  -20.1730 C   0  0  0  0  0  0  0  0  0  0  0  0
   -6.9116   -1.0417  -18.8565 C   0  0  0  0  0  0  0  0  0  0  0  0
   -6.2113   -0.5490  -17.8036 N   0  0  0  0  0  0  0  0  0  0  0  0
   -5.1711    0.2060  -18.0735 C   0  0  0  0  0  0  0  0  0  0  0  0
   -4.7329    0.5300  -19.3895 C   0  0  0  0  0  0  0  0  0  0  0  0
   -3.6061    1.3640  -19.6366 C   0  0  0  0  0  0  0  0  0  0  0  0
   -3.2204    1.6553  -20.9165 C   0  0  0  0  0  0  0  0  0  0  0  0
   -3.9412    1.1263  -22.0109 C   0  0  0  0  0  0  0  0  0  0  0  0
   -5.0343    0.3192  -21.7981 C   0  0  0  0  0  0  0  0  0  0  0  0
   -5.4666    0.0023  -20.4817 C   0  0  0  0  0  0  0  0  0  0  0  0
   -7.0683   -2.5995  -21.9199 C   0  0  0  0  0  0  0  0  0  0  0  0
   -8.3290   -2.8924  -22.7580 C   0  0  2  0  0  0  0  0  0  0  0  0
   -7.9800   -3.6576  -24.0328 C   0  0  0  0  0  0  0  0  0  0  0  0
   -9.1505   -3.9386  -24.7607 O   0  0  0  0  0  0  0  0  0  0  0  0
   -8.8659   -4.5845  -25.9793 C   0  0  0  0  0  0  0  0  0  0  0  0
  -10.5804   -1.5697  -22.8363 C   0  0  0  0  0  0  0  0  0  0  0  0
  -11.2168   -2.4500  -21.9517 C   0  0  0  0  0  0  0  0  0  0  0  0
  -12.5957   -2.4612  -21.8560 C   0  0  0  0  0  0  0  0  0  0  0  0
  -13.3826   -3.5338  -20.7365 Cl  0  0  0  0  0  0  0  0  0  0  0  0
  -13.3838   -1.6006  -22.6195 C   0  0  0  0  0  0  0  0  0  0  0  0
  -12.7621   -0.6794  -23.4380 C   0  0  0  0  0  0  0  0  0  0  0  0
  -11.3704   -0.6317  -23.5184 C   0  0  0  0  0  0  0  0  0  0  0  0
  -10.7429    0.5233  -24.2414 C   0  0  0  0  0  0  0  0  0  0  0  0
  -11.3976    1.4800  -24.6270 O   0  0  0  0  0  0  0  0  0  0  0  0
  1  2  1  0
  2  3  1  0
  3  4  2  0
  3  5  1  0
  5  6  1  0
  6  7  1  0
  8  7  1  6
  8  9  1  0
  9 10  2  0
  9 11  1  0
 11 12  1  0
 12 13  2  0
 13 14  1  0
 14 15  2  0
 15 16  1  0
 16 17  2  0
 17 18  1  0
 18 19  2  0
 19 20  1  0
 20 21  2  0
 11 22  1  0
 22 23  1  0
 23 24  1  6
 24 25  1  0
 25 26  1  0
  8 27  1  0
 27 28  2  0
 28 29  1  0
 29 30  1  0
 29 31  2  0
 31 32  1  0
 32 33  2  0
 33 34  1  0
 34 35  2  0
 34  6  1  0
 23  8  1  0
 33 27  1  0
 21 12  1  0
 21 16  1  0
M  END
>  <cnnaffinities>  (86) 
[6.51707, 6.41946, 6.45131, 6.35656, 6.64948]

>  <score>  (86) 
6.51707

>  <index>  (86) 
8

>  <Smiles>  (86) 
C(N(C(=O)C(N1C([C@@]2(C(=O)N(c3c(nc(c4c(c(c(c(c34)[H])[H])[H])[H])[H])[H])C([C@@]2(C(OC([H])([H])[H])([H])[H])[H])([H])[H])c2c(c(Cl)c(c(c2C1=O)[H])[H])[H])([H])[H])([H])[H])[H])([H])([H])[H]

>  <h>  (86) 
<NA>

>  <Training>  (86) 
True

>  <Success>  (86) 
True

>  <enamine_searched>  (86) 
False

>  <enamine_id>  (86) 
nan

$$$$

     RDKit          3D

 38 43  0  0  0  0  0  0  0  0999 V2000
    6.8740   -4.4949   23.5201 C   0  0  0  0  0  0  0  0  0  0  0  0
    7.2625   -3.9052   24.8711 C   0  0  1  0  0  0  0  0  0  0  0  0
    8.6726   -4.1274   25.2086 C   0  0  0  0  0  0  0  0  0  0  0  0
    9.3158   -2.8594   25.2958 N   0  0  0  0  0  0  0  0  0  0  0  0
    8.3218   -1.8648   25.3351 C   0  0  0  0  0  0  0  0  0  0  0  0
    8.4597   -0.6577   25.6453 O   0  0  0  0  0  0  0  0  0  0  0  0
    6.9831   -2.4378   24.9408 C   0  0  1  0  0  0  0  0  0  0  0  0
    6.6002   -1.8817   23.5958 C   0  0  0  0  0  0  0  0  0  0  0  0
    5.8011   -0.6832   23.6311 N   0  0  0  0  0  0  0  0  0  0  0  0
    4.8883   -0.5246   24.6786 C   0  0  0  0  0  0  0  0  0  0  0  0
    3.9597    0.3125   24.5413 O   0  0  0  0  0  0  0  0  0  0  0  0
    4.9984   -1.3011   25.9024 C   0  0  0  0  0  0  0  0  0  0  0  0
    4.0665   -1.0733   26.9366 C   0  0  0  0  0  0  0  0  0  0  0  0
    4.1755   -1.7662   28.0930 C   0  0  0  0  0  0  0  0  0  0  0  0
    5.2021   -2.6851   28.2349 C   0  0  0  0  0  0  0  0  0  0  0  0
    5.3463   -3.5846   29.7537 Cl  0  0  0  0  0  0  0  0  0  0  0  0
    6.1179   -2.9183   27.2351 C   0  0  0  0  0  0  0  0  0  0  0  0
    6.0078   -2.1996   26.0290 C   0  0  0  0  0  0  0  0  0  0  0  0
   10.7418   -2.6867   25.3434 C   0  0  0  0  0  0  0  0  0  0  0  0
   11.4888   -3.0299   26.4396 C   0  0  0  0  0  0  0  0  0  0  0  0
   12.8427   -2.8678   26.4569 N   0  0  0  0  0  0  0  0  0  0  0  0
   13.4448   -2.3589   25.3677 C   0  0  0  0  0  0  0  0  0  0  0  0
   12.7346   -1.9920   24.2248 C   0  0  0  0  0  0  0  0  0  0  0  0
   13.3460   -1.4798   23.1192 C   0  0  0  0  0  0  0  0  0  0  0  0
   12.5977   -1.1396   22.0177 C   0  0  0  0  0  0  0  0  0  0  0  0
   11.2338   -1.3160   22.0311 C   0  0  0  0  0  0  0  0  0  0  0  0
   10.6044   -1.8345   23.1476 C   0  0  0  0  0  0  0  0  0  0  0  0
   11.3665   -2.1667   24.2338 C   0  0  0  0  0  0  0  0  0  0  0  0
    6.0027    0.2792   22.5707 C   0  0  0  0  0  0  0  0  0  0  0  0
    5.2218   -0.0550   21.3192 C   0  0  0  0  0  0  0  0  0  0  0  0
    4.7454    1.0465   20.6195 N   0  0  0  0  0  0  0  0  0  0  0  0
    5.0504    2.3581   20.9627 C   0  0  0  0  0  0  0  0  0  0  0  0
    3.7228    3.1093   21.1555 C   0  0  0  0  0  0  0  0  0  0  0  0
    2.7155    2.7027   19.7534 S   0  0  0  0  0  0  0  0  0  0  0  0
    2.1073    3.9536   19.1562 O   0  0  0  0  0  0  0  0  0  0  0  0
    1.6404    1.7117   20.1217 O   0  0  0  0  0  0  0  0  0  0  0  0
    3.7591    1.9115   18.5571 C   0  0  0  0  0  0  0  0  0  0  0  0
    4.5071    0.7779   19.2360 C   0  0  0  0  0  0  0  0  0  0  0  0
  2  1  1  6
  2  3  1  0
  3  4  1  0
  4 19  1  0
 19 20  2  0
 20 21  1  0
 21 22  2  0
 22 23  1  0
 23 24  2  0
 24 25  1  0
 25 26  2  0
 26 27  1  0
 27 28  2  0
  4  5  1  0
  5  6  2  0
  5  7  1  0
  7  8  1  6
  8  9  1  0
  9 29  1  0
 29 30  1  0
 30 31  1  0
 31 32  1  0
 32 33  1  0
 33 34  1  0
 34 35  2  0
 34 36  2  0
 34 37  1  0
 37 38  1  0
  9 10  1  0
 10 11  2  0
 10 12  1  0
 12 13  2  0
 13 14  1  0
 14 15  2  0
 15 16  1  0
 15 17  1  0
 17 18  2  0
  7  2  1  0
 38 31  1  0
 18 12  1  0
 28 19  1  0
 18  7  1  0
 28 23  1  0
M  END
>  <minimizedAffinity>  (87) 
-9.23962

>  <CNNscore>  (87) 
0.4561487734

>  <CNNaffinity>  (87) 
6.6273345947

>  <CNN_VS>  (87) 
3.0230505466

>  <CNNaffinity_variance>  (87) 
0.1269030571

$$$$

     RDKit          3D

 39 44  0  0  0  0  0  0  0  0999 V2000
   -7.2022    2.9696  -22.8591 C   0  0  0  0  0  0  0  0  0  0  0  0
   -8.2793    2.2055  -23.4595 N   0  0  0  0  0  0  0  0  0  0  0  0
   -8.1484    1.5664  -24.6508 C   0  0  0  0  0  0  0  0  0  0  0  0
   -7.0874    1.4231  -25.2379 O   0  0  0  0  0  0  0  0  0  0  0  0
   -9.4797    1.0149  -25.1734 C   0  0  0  0  0  0  0  0  0  0  0  0
  -10.0149    0.0320  -24.2502 N   0  0  0  0  0  0  0  0  0  0  0  0
   -9.3109   -1.2294  -24.0958 C   0  0  0  0  0  0  0  0  0  0  0  0
   -9.5025   -1.8274  -22.6803 C   0  0  2  0  0  0  0  0  0  0  0  0
   -8.9223   -0.8591  -21.6046 C   0  0  0  0  0  0  0  0  0  0  0  0
   -9.4627    0.1185  -21.1221 O   0  0  0  0  0  0  0  0  0  0  0  0
   -7.6698   -1.3050  -21.2630 N   0  0  0  0  0  0  0  0  0  0  0  0
   -6.8984   -0.7354  -20.2241 C   0  0  0  0  0  0  0  0  0  0  0  0
   -7.2279   -0.9909  -18.9148 C   0  0  0  0  0  0  0  0  0  0  0  0
   -6.4983   -0.5826  -17.8477 N   0  0  0  0  0  0  0  0  0  0  0  0
   -5.4106    0.1101  -18.0947 C   0  0  0  0  0  0  0  0  0  0  0  0
   -4.9596    0.4569  -19.4020 C   0  0  0  0  0  0  0  0  0  0  0  0
   -3.7783    1.2204  -19.6182 C   0  0  0  0  0  0  0  0  0  0  0  0
   -3.3681    1.5163  -20.8882 C   0  0  0  0  0  0  0  0  0  0  0  0
   -4.1046    1.0618  -22.0028 C   0  0  0  0  0  0  0  0  0  0  0  0
   -5.2561    0.3271  -21.8203 C   0  0  0  0  0  0  0  0  0  0  0  0
   -5.7144    0.0130  -20.5121 C   0  0  0  0  0  0  0  0  0  0  0  0
   -7.2591   -2.4703  -22.0076 C   0  0  0  0  0  0  0  0  0  0  0  0
   -8.5869   -3.0888  -22.4718 C   0  0  2  0  0  0  0  0  0  0  0  0
   -8.3977   -4.0563  -23.6625 C   0  0  0  0  0  0  0  0  0  0  0  0
   -7.4148   -5.2017  -23.4622 C   0  0  0  0  0  0  0  0  0  0  0  0
   -6.0331   -4.9964  -23.5812 C   0  0  0  0  0  0  0  0  0  0  0  0
   -5.1372   -6.0604  -23.5625 C   0  0  0  0  0  0  0  0  0  0  0  0
   -5.5940   -7.3629  -23.3845 C   0  0  0  0  0  0  0  0  0  0  0  0
   -6.9580   -7.5808  -23.2196 C   0  0  0  0  0  0  0  0  0  0  0  0
   -7.8511   -6.5115  -23.2501 C   0  0  0  0  0  0  0  0  0  0  0  0
  -11.0068   -1.9531  -22.4989 C   0  0  0  0  0  0  0  0  0  0  0  0
  -11.6085   -2.9480  -21.7262 C   0  0  0  0  0  0  0  0  0  0  0  0
  -12.9708   -2.8945  -21.4690 C   0  0  0  0  0  0  0  0  0  0  0  0
  -13.7134   -4.0337  -20.3945 Cl  0  0  0  0  0  0  0  0  0  0  0  0
  -13.7818   -1.8875  -21.9827 C   0  0  0  0  0  0  0  0  0  0  0  0
  -13.2015   -0.9057  -22.7482 C   0  0  0  0  0  0  0  0  0  0  0  0
  -11.8377   -0.9398  -23.0088 C   0  0  0  0  0  0  0  0  0  0  0  0
  -11.3106    0.1683  -23.8548 C   0  0  0  0  0  0  0  0  0  0  0  0
  -11.9937    1.1419  -24.1505 O   0  0  0  0  0  0  0  0  0  0  0  0
  1  2  1  0
  2  3  1  0
  3  4  2  0
  3  5  1  0
  5  6  1  0
  6  7  1  0
  8  7  1  6
  8  9  1  0
  9 10  2  0
  9 11  1  0
 11 12  1  0
 12 13  2  0
 13 14  1  0
 14 15  2  0
 15 16  1  0
 16 17  2  0
 17 18  1  0
 18 19  2  0
 19 20  1  0
 20 21  2  0
 11 22  1  0
 22 23  1  0
 23 24  1  6
 24 25  1  0
 25 26  2  0
 26 27  1  0
 27 28  2  0
 28 29  1  0
 29 30  2  0
  8 31  1  0
 31 32  2  0
 32 33  1  0
 33 34  1  0
 33 35  2  0
 35 36  1  0
 36 37  2  0
 37 38  1  0
 38 39  2  0
 38  6  1  0
 23  8  1  0
 30 25  1  0
 37 31  1  0
 21 12  1  0
 21 16  1  0
M  END
>  <cnnaffinities>  (88) 
[7.22684, 7.22525, 6.94579, 6.91456, 6.83126]

>  <score>  (88) 
7.22684

>  <index>  (88) 
20

>  <Smiles>  (88) 
C(N(C(=O)C(N1C([C@@]2(C(=O)N(c3c(nc(c4c(c(c(c(c34)[H])[H])[H])[H])[H])[H])C([C@@]2(C(c2c(c(c(c(c2[H])[H])[H])[H])[H])([H])[H])[H])([H])[H])c2c(c(Cl)c(c(c2C1=O)[H])[H])[H])([H])[H])([H])[H])[H])([H])([H])[H]

>  <h>  (88) 
<NA>

>  <Training>  (88) 
True

>  <Success>  (88) 
True

>  <enamine_searched>  (88) 
False

>  <enamine_id>  (88) 
nan

$$$$

     RDKit          3D

 31 35  0  0  0  0  0  0  0  0999 V2000
   -8.3901   -4.0238  -23.6749 C   0  0  0  0  0  0  0  0  0  0  0  0
   -8.5949   -3.0947  -22.4850 C   0  0  1  0  0  0  0  0  0  0  0  0
   -7.2613   -2.5164  -21.9992 C   0  0  0  0  0  0  0  0  0  0  0  0
   -7.6648   -1.3475  -21.2545 N   0  0  0  0  0  0  0  0  0  0  0  0
   -6.8806   -0.8010  -20.2100 C   0  0  0  0  0  0  0  0  0  0  0  0
   -7.1945   -1.0541  -18.8987 C   0  0  0  0  0  0  0  0  0  0  0  0
   -6.4676   -0.6215  -17.8366 N   0  0  0  0  0  0  0  0  0  0  0  0
   -5.3952    0.0921  -18.0863 C   0  0  0  0  0  0  0  0  0  0  0  0
   -4.9496    0.4263  -19.3965 C   0  0  0  0  0  0  0  0  0  0  0  0
   -3.7969    1.2241  -19.6225 C   0  0  0  0  0  0  0  0  0  0  0  0
   -3.3905    1.5065  -20.8970 C   0  0  0  0  0  0  0  0  0  0  0  0
   -4.1116    1.0034  -22.0026 C   0  0  0  0  0  0  0  0  0  0  0  0
   -5.2384    0.2414  -21.8113 C   0  0  0  0  0  0  0  0  0  0  0  0
   -5.6941   -0.0545  -20.4990 C   0  0  0  0  0  0  0  0  0  0  0  0
   -8.9529   -0.9309  -21.5314 C   0  0  0  0  0  0  0  0  0  0  0  0
   -9.4870    0.0202  -21.0110 O   0  0  0  0  0  0  0  0  0  0  0  0
   -9.5429   -1.8685  -22.6369 C   0  0  1  0  0  0  0  0  0  0  0  0
   -9.3762   -1.2065  -24.0307 C   0  0  0  0  0  0  0  0  0  0  0  0
  -10.3165   -0.1234  -24.2563 N   0  0  0  0  0  0  0  0  0  0  0  0
   -9.8959    1.1429  -24.8172 C   0  0  0  0  0  0  0  0  0  0  0  0
  -10.0037    2.2261  -23.8256 C   0  0  0  0  0  0  0  0  0  0  0  0
  -10.1362    3.0609  -23.0414 N   0  0  0  0  0  0  0  0  0  0  0  0
  -11.6426   -0.2396  -23.9559 C   0  0  0  0  0  0  0  0  0  0  0  0
  -12.4807    0.5635  -24.3396 O   0  0  0  0  0  0  0  0  0  0  0  0
  -12.0099   -1.3548  -23.0576 C   0  0  0  0  0  0  0  0  0  0  0  0
  -13.3687   -1.4713  -22.7663 C   0  0  0  0  0  0  0  0  0  0  0  0
  -13.8055   -2.3956  -21.8487 C   0  0  0  0  0  0  0  0  0  0  0  0
  -12.8333   -3.2011  -21.2704 C   0  0  0  0  0  0  0  0  0  0  0  0
  -13.2307   -4.0493  -20.3126 F   0  0  0  0  0  0  0  0  0  0  0  0
  -11.4924   -3.1400  -21.5961 C   0  0  0  0  0  0  0  0  0  0  0  0
  -11.0287   -2.1492  -22.4558 C   0  0  0  0  0  0  0  0  0  0  0  0
  2  1  1  6
  2  3  1  0
  3  4  1  0
  4  5  1  0
  5  6  2  0
  6  7  1  0
  7  8  2  0
  8  9  1  0
  9 10  2  0
 10 11  1  0
 11 12  2  0
 12 13  1  0
 13 14  2  0
  4 15  1  0
 15 16  2  0
 15 17  1  0
 17 18  1  6
 18 19  1  0
 19 20  1  0
 20 21  1  0
 21 22  3  0
 19 23  1  0
 23 24  2  0
 23 25  1  0
 25 26  2  0
 26 27  1  0
 27 28  2  0
 28 29  1  0
 28 30  1  0
 30 31  2  0
 17  2  1  0
 31 25  1  0
 14  5  1  0
 31 17  1  0
 14  9  1  0
M  END
>  <cnnaffinities>  (89) 
[6.45167]

>  <score>  (89) 
6.45167

>  <index>  (89) 
46

>  <Smiles>  (89) 
C([C@]1(C(N(c2c(nc(c3c(c(c(c(c23)[H])[H])[H])[H])[H])[H])C(=O)[C@]21C(N(C(C#N)([H])[H])C(=O)c1c(c(c(F)c(c21)[H])[H])[H])([H])[H])([H])[H])[H])([H])([H])[H]

>  <h>  (89) 
<NA>

>  <Training>  (89) 
True

>  <Success>  (89) 
True

>  <enamine_searched>  (89) 
False

>  <enamine_id>  (89) 
nan

$$$$

     RDKit          3D

 31 36  0  0  0  0  0  0  0  0999 V2000
   -8.4496    0.7755  -21.2948 O   0  0  0  0  0  0  0  0  0  0  0  0
   -8.3620   -0.3278  -21.8104 C   0  0  0  0  0  0  0  0  0  0  0  0
   -7.4530   -1.4081  -21.2306 C   0  0  0  0  0  0  0  0  0  0  0  0
   -6.5850   -0.8590  -20.1499 C   0  0  0  0  0  0  0  0  0  0  0  0
   -6.9132   -1.0570  -18.8352 C   0  0  0  0  0  0  0  0  0  0  0  0
   -6.2443   -0.5462  -17.7692 N   0  0  0  0  0  0  0  0  0  0  0  0
   -5.2041    0.2078  -18.0510 C   0  0  0  0  0  0  0  0  0  0  0  0
   -4.7616    0.5189  -19.3677 C   0  0  0  0  0  0  0  0  0  0  0  0
   -3.6400    1.3497  -19.6035 C   0  0  0  0  0  0  0  0  0  0  0  0
   -3.2443    1.6426  -20.8817 C   0  0  0  0  0  0  0  0  0  0  0  0
   -3.9592    1.1171  -21.9805 C   0  0  0  0  0  0  0  0  0  0  0  0
   -5.0496    0.3093  -21.7783 C   0  0  0  0  0  0  0  0  0  0  0  0
   -5.4766   -0.0191  -20.4602 C   0  0  0  0  0  0  0  0  0  0  0  0
   -9.0762   -0.6664  -22.9342 N   0  0  0  0  0  0  0  0  0  0  0  0
   -9.1151   -2.0010  -23.5417 C   0  0  0  0  0  0  0  0  0  0  0  0
   -8.4981   -2.1009  -24.9305 C   0  0  0  0  0  0  0  0  0  0  0  0
   -7.2034   -1.6507  -25.1995 C   0  0  0  0  0  0  0  0  0  0  0  0
   -6.6555   -1.7646  -26.4753 C   0  0  0  0  0  0  0  0  0  0  0  0
   -7.3986   -2.2866  -27.5276 C   0  0  0  0  0  0  0  0  0  0  0  0
   -8.6881   -2.7239  -27.2592 C   0  0  0  0  0  0  0  0  0  0  0  0
   -9.6790   -3.3102  -28.5656 Cl  0  0  0  0  0  0  0  0  0  0  0  0
   -9.2229   -2.6798  -25.9754 C   0  0  0  0  0  0  0  0  0  0  0  0
   -9.7877    0.4149  -23.5619 C   0  0  2  0  0  0  0  0  0  0  0  0
   -8.9701    1.4832  -24.3237 C   0  0  0  0  0  0  0  0  0  0  0  0
  -10.1184    2.3363  -24.8306 N   0  0  1  0  0  0  0  0  0  0  0  0
  -10.1121    2.7334  -26.2446 C   0  0  0  0  0  0  0  0  0  0  0  0
   -9.2647    3.8924  -26.6671 C   0  0  0  0  0  0  0  0  0  0  0  0
  -10.7660    4.0269  -26.6348 C   0  0  0  0  0  0  0  0  0  0  0  0
  -11.2885    1.5096  -24.3280 C   0  0  2  0  0  0  0  0  0  0  0  0
  -10.8705    1.2766  -22.8751 C   0  0  0  0  0  0  0  0  0  0  0  0
  -10.8235    0.0905  -24.6365 C   0  0  0  0  0  0  0  0  0  0  0  0
  1  2  2  0
  2  3  1  0
  3  4  1  0
  4  5  2  0
  5  6  1  0
  6  7  2  0
  7  8  1  0
  8  9  2  0
  9 10  1  0
 10 11  2  0
 11 12  1  0
 12 13  2  0
  2 14  1  0
 14 15  1  0
 15 16  1  0
 16 17  2  0
 17 18  1  0
 18 19  2  0
 19 20  1  0
 20 21  1  0
 20 22  2  0
 23 14  1  1
 23 24  1  0
 24 25  1  0
 25 26  1  6
 26 27  1  0
 27 28  1  0
 25 29  1  0
 29 30  1  1
 29 31  1  0
 13  4  1  0
 22 16  1  0
 30 23  1  0
 13  8  1  0
 31 23  1  0
 28 26  1  0
M  CHG  1  25   1
M  END
>  <cnnaffinities>  (90) 
[5.70351, 5.67636, 5.97704, 5.54472, 5.33434, 5.71709, 5.5839, 5.89788, 5.59719, 5.85194, 5.81647]

>  <score>  (90) 
5.70351

>  <index>  (90) 
47

>  <Smiles>  (90) 
O=C(C(c1c(nc(c2c(c(c(c(c12)[H])[H])[H])[H])[H])[H])([H])[H])N(C(c1c(c(c(c(Cl)c1[H])[H])[H])[H])([H])[H])[C@]12C([N@@+](C3(C(C3([H])[H])([H])[H])[H])([C@](C1([H])[H])(C2([H])[H])[H])[H])([H])[H]

>  <h>  (90) 
<NA>

>  <Training>  (90) 
True

>  <Success>  (90) 
True

>  <enamine_searched>  (90) 
False

>  <enamine_id>  (90) 
nan

$$$$

     RDKit          3D

 22 24  0  0  0  0  0  0  0  0999 V2000
   -5.0023    1.8070  -26.3228 C   0  0  0  0  0  0  0  0  0  0  0  0
   -6.4614    1.6993  -26.7706 C   0  0  0  0  0  0  0  0  0  0  0  0
   -6.9119    3.0163  -27.4103 C   0  0  0  0  0  0  0  0  0  0  0  0
   -7.4290    1.2354  -25.6591 C   0  0  0  0  0  0  0  0  0  0  0  0
   -7.3748    2.0671  -24.3772 C   0  0  0  0  0  0  0  0  0  0  0  0
   -8.3898    1.5771  -23.3445 C   0  0  0  0  0  0  0  0  0  0  0  0
   -8.1860    0.1582  -23.0773 N   0  0  0  0  0  0  0  0  0  0  0  0
   -8.3993   -0.3105  -21.7762 C   0  0  0  0  0  0  0  0  0  0  0  0
   -9.2219    0.1771  -21.0329 O   0  0  0  0  0  0  0  0  0  0  0  0
   -7.4483   -1.4085  -21.2710 C   0  0  0  0  0  0  0  0  0  0  0  0
   -6.5720   -0.8334  -20.1746 C   0  0  0  0  0  0  0  0  0  0  0  0
   -6.8775   -1.0413  -18.8546 C   0  0  0  0  0  0  0  0  0  0  0  0
   -6.1952   -0.5357  -17.7907 N   0  0  0  0  0  0  0  0  0  0  0  0
   -5.1576    0.2205  -18.0630 C   0  0  0  0  0  0  0  0  0  0  0  0
   -4.7245    0.5352  -19.3793 C   0  0  0  0  0  0  0  0  0  0  0  0
   -3.6032    1.3705  -19.6214 C   0  0  0  0  0  0  0  0  0  0  0  0
   -3.2126    1.6659  -20.9000 C   0  0  0  0  0  0  0  0  0  0  0  0
   -3.9322    1.1294  -21.9909 C   0  0  0  0  0  0  0  0  0  0  0  0
   -5.0201    0.3163  -21.7853 C   0  0  0  0  0  0  0  0  0  0  0  0
   -5.4515   -0.0011  -20.4710 C   0  0  0  0  0  0  0  0  0  0  0  0
   -8.2496   -0.6969  -24.2556 C   0  0  0  0  0  0  0  0  0  0  0  0
   -7.2488   -0.2434  -25.3111 C   0  0  0  0  0  0  0  0  0  0  0  0
  1  2  1  0
  2  3  1  0
  2  4  1  0
  4  5  1  0
  5  6  1  0
  6  7  1  0
  7  8  1  0
  8  9  2  0
  8 10  1  0
 10 11  1  0
 11 12  2  0
 12 13  1  0
 13 14  2  0
 14 15  1  0
 15 16  2  0
 16 17  1  0
 17 18  2  0
 18 19  1  0
 19 20  2  0
  7 21  1  0
 21 22  1  0
 22  4  1  0
 20 11  1  0
 20 15  1  0
M  END
>  <cnnaffinities>  (91) 
[4.99529, 4.99525, 4.99525, 5.02589, 5.02589, 5.02586, 4.83865, 4.83882, 4.83866, 5.23006, 5.23906, 5.20953, 5.20936, 5.20963, 5.20993, 5.31249, 5.23937, 5.31378, 4.98809, 4.98943, 4.98944, 4.99714, 5.23928, 5.23914, 5.21813, 5.21811, 5.21833, 4.89847, 4.89844, 5.12445, 5.09491, 5.09492, 4.76346, 4.76447, 4.88644, 4.873, 4.87278, 5.05725]

>  <score>  (91) 
4.99529

>  <index>  (91) 
48

>  <Smiles>  (91) 
C(C(C([H])([H])[H])(C1(C(C(N(C(=O)C(c2c(nc(c3c(c(c(c(c23)[H])[H])[H])[H])[H])[H])([H])[H])C(C1([H])[H])([H])[H])([H])[H])([H])[H])[H])[H])([H])([H])[H]

>  <h>  (91) 
<NA>

>  <Training>  (91) 
True

>  <Success>  (91) 
True

>  <enamine_searched>  (91) 
False

>  <enamine_id>  (91) 
nan

$$$$

     RDKit          3D

 40 45  0  0  0  0  0  0  0  0999 V2000
   -9.2252    2.3590  -28.3313 C   0  0  0  0  0  0  0  0  0  0  0  0
   -9.3805    2.2042  -26.8977 N   0  0  0  0  0  0  0  0  0  0  0  0
   -8.3644    1.6830  -26.1637 C   0  0  0  0  0  0  0  0  0  0  0  0
   -7.3166    1.2697  -26.6435 O   0  0  0  0  0  0  0  0  0  0  0  0
   -8.6058    1.6705  -24.6500 C   0  0  0  0  0  0  0  0  0  0  0  0
   -9.2916    0.4752  -24.1999 N   0  0  0  0  0  0  0  0  0  0  0  0
   -8.5715   -0.7759  -24.1434 C   0  0  0  0  0  0  0  0  0  0  0  0
   -8.9777   -1.5969  -22.8968 C   0  0  2  0  0  0  0  0  0  0  0  0
   -8.5401   -0.8617  -21.6088 C   0  0  0  0  0  0  0  0  0  0  0  0
   -9.1078    0.0575  -21.0555 O   0  0  0  0  0  0  0  0  0  0  0  0
   -7.3716   -1.4303  -21.1616 N   0  0  0  0  0  0  0  0  0  0  0  0
   -6.6107   -0.8317  -20.1258 C   0  0  0  0  0  0  0  0  0  0  0  0
   -6.9604   -1.0287  -18.8153 C   0  0  0  0  0  0  0  0  0  0  0  0
   -6.2701   -0.5384  -17.7516 N   0  0  0  0  0  0  0  0  0  0  0  0
   -5.2089    0.1910  -18.0110 C   0  0  0  0  0  0  0  0  0  0  0  0
   -4.7480    0.5016  -19.3257 C   0  0  0  0  0  0  0  0  0  0  0  0
   -3.6196    1.3324  -19.5627 C   0  0  0  0  0  0  0  0  0  0  0  0
   -3.2327    1.6282  -20.8415 C   0  0  0  0  0  0  0  0  0  0  0  0
   -3.9436    1.1039  -21.9435 C   0  0  0  0  0  0  0  0  0  0  0  0
   -5.0321    0.2932  -21.7428 C   0  0  0  0  0  0  0  0  0  0  0  0
   -5.4634   -0.0256  -20.4240 C   0  0  0  0  0  0  0  0  0  0  0  0
   -6.9298   -2.5719  -21.9329 C   0  0  0  0  0  0  0  0  0  0  0  0
   -8.1332   -2.9096  -22.8331 C   0  0  2  0  0  0  0  0  0  0  0  0
   -7.6528   -3.4763  -24.1867 C   0  0  0  0  0  0  0  0  0  0  0  0
   -6.7528   -4.5868  -24.0450 N   0  0  0  0  0  0  0  0  0  0  0  0
   -7.1971   -5.8667  -23.8509 C   0  0  0  0  0  0  0  0  0  0  0  0
   -6.4943   -6.9882  -23.5408 C   0  0  0  0  0  0  0  0  0  0  0  0
   -7.2391   -8.1201  -23.2965 N   0  0  0  0  0  0  0  0  0  0  0  0
   -8.5085   -7.8824  -23.4287 C   0  0  0  0  0  0  0  0  0  0  0  0
   -9.6075   -8.8661  -23.2168 C   0  0  0  0  0  0  0  0  0  0  0  0
   -8.8890   -6.2529  -23.9221 S   0  0  0  0  0  0  0  0  0  0  0  0
  -10.4976   -1.6818  -22.8790 C   0  0  0  0  0  0  0  0  0  0  0  0
  -11.1480   -2.5806  -22.0244 C   0  0  0  0  0  0  0  0  0  0  0  0
  -12.5336   -2.5876  -21.9576 C   0  0  0  0  0  0  0  0  0  0  0  0
  -13.3630   -3.6262  -20.8374 Cl  0  0  0  0  0  0  0  0  0  0  0  0
  -13.3063   -1.7166  -22.7240 C   0  0  0  0  0  0  0  0  0  0  0  0
  -12.6747   -0.7815  -23.5178 C   0  0  0  0  0  0  0  0  0  0  0  0
  -11.2820   -0.7285  -23.5557 C   0  0  0  0  0  0  0  0  0  0  0  0
  -10.6516    0.4539  -24.2335 C   0  0  0  0  0  0  0  0  0  0  0  0
  -11.2987    1.3610  -24.7438 O   0  0  0  0  0  0  0  0  0  0  0  0
  1  2  1  0
  2  3  1  0
  3  4  2  0
  3  5  1  0
  5  6  1  0
  6  7  1  0
  8  7  1  6
  8  9  1  0
  9 10  2  0
  9 11  1  0
 11 12  1  0
 12 13  2  0
 13 14  1  0
 14 15  2  0
 15 16  1  0
 16 17  2  0
 17 18  1  0
 18 19  2  0
 19 20  1  0
 20 21  2  0
 11 22  1  0
 22 23  1  0
 23 24  1  6
 24 25  1  0
 25 26  1  0
 26 27  2  0
 27 28  1  0
 28 29  2  0
 29 30  1  0
 29 31  1  0
  8 32  1  0
 32 33  2  0
 33 34  1  0
 34 35  1  0
 34 36  2  0
 36 37  1  0
 37 38  2  0
 38 39  1  0
 39 40  2  0
 39  6  1  0
 23  8  1  0
 31 26  1  0
 38 32  1  0
 21 12  1  0
 21 16  1  0
M  END
>  <cnnaffinities>  (92) 
[6.90068, 7.17215]

>  <score>  (92) 
6.90068

>  <index>  (92) 
49

>  <Smiles>  (92) 
C(N(C(=O)C(N1C([C@@]2(C(=O)N(c3c(nc(c4c(c(c(c(c34)[H])[H])[H])[H])[H])[H])C([C@@]2(C(N(c2c(nc(C([H])([H])[H])s2)[H])[H])([H])[H])[H])([H])[H])c2c(c(Cl)c(c(c2C1=O)[H])[H])[H])([H])[H])([H])[H])[H])([H])([H])[H]

>  <h>  (92) 
<NA>

>  <Training>  (92) 
True

>  <Success>  (92) 
True

>  <enamine_searched>  (92) 
False

>  <enamine_id>  (92) 
nan

$$$$

     RDKit          3D

 38 43  0  0  0  0  0  0  0  0999 V2000
    8.6627    6.3356   26.0011 C   0  0  0  0  0  0  0  0  0  0  0  0
    8.7034    5.6388   24.7255 N   0  0  0  0  0  0  0  0  0  0  0  0
    7.9872    4.4879   24.5482 C   0  0  0  0  0  0  0  0  0  0  0  0
    7.2828    3.9728   25.4000 O   0  0  0  0  0  0  0  0  0  0  0  0
    8.0836    3.9170   23.1285 C   0  0  0  0  0  0  0  0  0  0  0  0
    8.8970    2.7202   23.0284 N   0  0  0  0  0  0  0  0  0  0  0  0
    8.3411    1.4326   23.4095 C   0  0  0  0  0  0  0  0  0  0  0  0
    8.6752    0.3175   22.3855 C   0  0  2  0  0  0  0  0  0  0  0  0
    7.9055    0.5607   21.0723 C   0  0  0  0  0  0  0  0  0  0  0  0
    8.1361    1.4010   20.2350 O   0  0  0  0  0  0  0  0  0  0  0  0
    6.8616   -0.3360   20.9896 N   0  0  0  0  0  0  0  0  0  0  0  0
    5.8904   -0.1778   19.9685 C   0  0  0  0  0  0  0  0  0  0  0  0
    6.0919   -0.7758   18.7542 C   0  0  0  0  0  0  0  0  0  0  0  0
    5.2684   -0.6493   17.6835 N   0  0  0  0  0  0  0  0  0  0  0  0
    4.2008    0.0973   17.8338 C   0  0  0  0  0  0  0  0  0  0  0  0
    3.8633    0.7710   19.0435 C   0  0  0  0  0  0  0  0  0  0  0  0
    2.6953    1.5676   19.1596 C   0  0  0  0  0  0  0  0  0  0  0  0
    2.3944    2.1938   20.3362 C   0  0  0  0  0  0  0  0  0  0  0  0
    3.2646    2.0881   21.4436 C   0  0  0  0  0  0  0  0  0  0  0  0
    4.4105    1.3383   21.3534 C   0  0  0  0  0  0  0  0  0  0  0  0
    4.7307    0.6420   20.1528 C   0  0  0  0  0  0  0  0  0  0  0  0
    6.7324   -1.1960   22.1459 C   0  0  0  0  0  0  0  0  0  0  0  0
    8.1145   -1.0752   22.8030 C   0  0  2  0  0  0  0  0  0  0  0  0
    8.1545   -1.4755   24.2878 C   0  0  0  0  0  0  0  0  0  0  0  0
    7.0304   -0.9667   25.1486 C   0  0  0  0  0  0  0  0  0  0  0  0
    5.8190   -1.5113   25.1758 N   0  0  0  0  0  0  0  0  0  0  0  0
    5.1239   -0.7808   26.0448 N   0  0  0  0  0  0  0  0  0  0  0  0
    5.8851    0.1623   26.5271 N   0  0  0  0  0  0  0  0  0  0  0  0
    7.0993    0.0625   25.9861 N   0  0  0  0  0  0  0  0  0  0  0  0
   10.1774    0.3778   22.1467 C   0  0  0  0  0  0  0  0  0  0  0  0
   10.8737   -0.7279   21.6454 C   0  0  0  0  0  0  0  0  0  0  0  0
   12.2401   -0.6608   21.4454 C   0  0  0  0  0  0  0  0  0  0  0  0
   13.0548   -2.0298   20.7592 Cl  0  0  0  0  0  0  0  0  0  0  0  0
   12.9670    0.5025   21.6837 C   0  0  0  0  0  0  0  0  0  0  0  0
   12.2765    1.6182   22.1097 C   0  0  0  0  0  0  0  0  0  0  0  0
   10.9035    1.5643   22.3443 C   0  0  0  0  0  0  0  0  0  0  0  0
   10.2207    2.8446   22.7280 C   0  0  0  0  0  0  0  0  0  0  0  0
   10.7986    3.9270   22.7269 O   0  0  0  0  0  0  0  0  0  0  0  0
  1  2  1  0
  2  3  1  0
  3  4  2  0
  3  5  1  0
  5  6  1  0
  6  7  1  0
  8  7  1  1
  8  9  1  0
  9 10  2  0
  9 11  1  0
 11 12  1  0
 12 13  2  0
 13 14  1  0
 14 15  2  0
 15 16  1  0
 16 17  2  0
 17 18  1  0
 18 19  2  0
 19 20  1  0
 20 21  2  0
 11 22  1  0
 22 23  1  0
 23 24  1  1
 24 25  1  0
 25 26  1  0
 26 27  2  0
 27 28  1  0
 28 29  1  0
  8 30  1  0
 30 31  2  0
 31 32  1  0
 32 33  1  0
 32 34  2  0
 34 35  1  0
 35 36  2  0
 36 37  1  0
 37 38  2  0
 37  6  1  0
 23  8  1  0
 29 25  2  0
 36 30  1  0
 21 12  1  0
 21 16  1  0
M  CHG  1  28  -1
M  END
>  <cnnaffinities>  (93) 
[6.29353, 6.06818, 6.6135, 6.60785, 6.81452, 6.00303, 6.81922, 6.34508, 6.45893]

>  <score>  (93) 
6.29353

>  <index>  (93) 
42

>  <Smiles>  (93) 
C(N(C(=O)C(N1C([C@@]2(C(=O)N(c3c(nc(c4c(c(c(c(c34)[H])[H])[H])[H])[H])[H])C([C@@]2(C(c2nn[n-]n2)([H])[H])[H])([H])[H])c2c(c(Cl)c(c(c2C1=O)[H])[H])[H])([H])[H])([H])[H])[H])([H])([H])[H]

>  <h>  (93) 
<NA>

>  <Training>  (93) 
True

>  <Success>  (93) 
True

>  <enamine_searched>  (93) 
False

>  <enamine_id>  (93) 
nan

$$$$

     RDKit          3D

 37 41  0  0  0  0  0  0  0  0999 V2000
   -7.4383    3.0693  -22.2802 C   0  0  0  0  0  0  0  0  0  0  0  0
   -8.5600    2.4702  -22.9742 N   0  0  0  0  0  0  0  0  0  0  0  0
   -8.3780    1.6607  -24.0478 C   0  0  0  0  0  0  0  0  0  0  0  0
   -7.2749    1.3473  -24.4739 O   0  0  0  0  0  0  0  0  0  0  0  0
   -9.6822    1.1804  -24.6999 C   0  0  0  0  0  0  0  0  0  0  0  0
  -10.2112   -0.0055  -24.0452 N   0  0  0  0  0  0  0  0  0  0  0  0
   -9.3625   -1.1787  -23.9607 C   0  0  0  0  0  0  0  0  0  0  0  0
   -9.4347   -1.8709  -22.5717 C   0  0  2  0  0  0  0  0  0  0  0  0
   -8.8103   -0.9300  -21.4913 C   0  0  0  0  0  0  0  0  0  0  0  0
   -9.3339    0.0504  -21.0014 O   0  0  0  0  0  0  0  0  0  0  0  0
   -7.5312   -1.3683  -21.1979 N   0  0  0  0  0  0  0  0  0  0  0  0
   -6.7343   -0.7934  -20.1660 C   0  0  0  0  0  0  0  0  0  0  0  0
   -7.0287   -1.0350  -18.8439 C   0  0  0  0  0  0  0  0  0  0  0  0
   -6.3034   -0.5695  -17.7952 N   0  0  0  0  0  0  0  0  0  0  0  0
   -5.2495    0.1627  -18.0678 C   0  0  0  0  0  0  0  0  0  0  0  0
   -4.8212    0.4934  -19.3834 C   0  0  0  0  0  0  0  0  0  0  0  0
   -3.6785    1.3048  -19.6262 C   0  0  0  0  0  0  0  0  0  0  0  0
   -3.3036    1.6105  -20.9049 C   0  0  0  0  0  0  0  0  0  0  0  0
   -4.0557    1.1298  -21.9991 C   0  0  0  0  0  0  0  0  0  0  0  0
   -5.1729    0.3521  -21.7890 C   0  0  0  0  0  0  0  0  0  0  0  0
   -5.5822    0.0028  -20.4742 C   0  0  0  0  0  0  0  0  0  0  0  0
   -7.1208   -2.5155  -21.9896 C   0  0  0  0  0  0  0  0  0  0  0  0
   -8.4636   -3.0887  -22.4999 C   0  0  2  0  0  0  0  0  0  0  0  0
   -8.2870   -3.8864  -23.8018 C   0  0  0  0  0  0  0  0  0  0  0  0
   -7.3607   -4.9377  -23.6663 O   0  0  0  0  0  0  0  0  0  0  0  0
   -7.8439   -6.1630  -23.1343 C   0  0  0  0  0  0  0  0  0  0  0  0
   -8.2485   -7.1143  -24.2555 C   0  0  0  0  0  0  0  0  0  0  0  0
   -6.7028   -6.7066  -22.2913 C   0  0  0  0  0  0  0  0  0  0  0  0
  -10.9196   -2.1325  -22.3133 C   0  0  0  0  0  0  0  0  0  0  0  0
  -11.3923   -3.1875  -21.5252 C   0  0  0  0  0  0  0  0  0  0  0  0
  -12.7254   -3.2292  -21.1413 C   0  0  0  0  0  0  0  0  0  0  0  0
  -13.1464   -4.1223  -20.2303 F   0  0  0  0  0  0  0  0  0  0  0  0
  -13.6751   -2.3396  -21.6098 C   0  0  0  0  0  0  0  0  0  0  0  0
  -13.2317   -1.3396  -22.4458 C   0  0  0  0  0  0  0  0  0  0  0  0
  -11.8818   -1.2170  -22.7754 C   0  0  0  0  0  0  0  0  0  0  0  0
  -11.4912   -0.0099  -23.5739 C   0  0  0  0  0  0  0  0  0  0  0  0
  -12.2732    0.9162  -23.7697 O   0  0  0  0  0  0  0  0  0  0  0  0
  1  2  1  0
  2  3  1  0
  3  4  2  0
  3  5  1  0
  5  6  1  0
  6  7  1  0
  8  7  1  6
  8  9  1  0
  9 10  2  0
  9 11  1  0
 11 12  1  0
 12 13  2  0
 13 14  1  0
 14 15  2  0
 15 16  1  0
 16 17  2  0
 17 18  1  0
 18 19  2  0
 19 20  1  0
 20 21  2  0
 11 22  1  0
 22 23  1  0
 23 24  1  6
 24 25  1  0
 25 26  1  0
 26 27  1  0
 26 28  1  0
  8 29  1  0
 29 30  2  0
 30 31  1  0
 31 32  1  0
 31 33  2  0
 33 34  1  0
 34 35  2  0
 35 36  1  0
 36 37  2  0
 36  6  1  0
 23  8  1  0
 35 29  1  0
 21 12  1  0
 21 16  1  0
M  END
>  <cnnaffinities>  (94) 
[6.89447, 6.88935, 6.84063, 6.66195, 6.34806, 6.71601, 6.46042, 6.69951, 6.802, 6.47268]

>  <score>  (94) 
6.89447

>  <index>  (94) 
50

>  <Smiles>  (94) 
C(N(C(=O)C(N1C([C@@]2(C(=O)N(c3c(nc(c4c(c(c(c(c34)[H])[H])[H])[H])[H])[H])C([C@@]2(C(OC(C([H])([H])[H])(C([H])([H])[H])[H])([H])[H])[H])([H])[H])c2c(c(F)c(c(c2C1=O)[H])[H])[H])([H])[H])([H])[H])[H])([H])([H])[H]

>  <h>  (94) 
<NA>

>  <Training>  (94) 
True

>  <Success>  (94) 
True

>  <enamine_searched>  (94) 
False

>  <enamine_id>  (94) 
nan

$$$$

     RDKit          3D

 36 41  0  0  0  0  0  0  0  0999 V2000
    6.8513    5.0687   27.3558 C   0  0  0  0  0  0  0  0  0  0  0  0
    7.1047    3.5905   27.0979 C   0  0  0  0  0  0  0  0  0  0  0  0
    5.9816    2.8583   26.5560 N   0  0  0  0  0  0  0  0  0  0  0  0
    5.0683    2.3664   27.4064 N   0  0  0  0  0  0  0  0  0  0  0  0
    4.1600    1.7935   26.6324 C   0  0  0  0  0  0  0  0  0  0  0  0
    4.4777    1.9239   25.2655 C   0  0  0  0  0  0  0  0  0  0  0  0
    5.6833    2.6065   25.2494 C   0  0  0  0  0  0  0  0  0  0  0  0
    6.6362    3.0538   24.1810 C   0  0  0  0  0  0  0  0  0  0  0  0
    7.8826    2.2765   24.1154 N   0  0  0  0  0  0  0  0  0  0  0  0
    7.7813    0.8299   23.9601 C   0  0  0  0  0  0  0  0  0  0  0  0
    8.4407    0.3080   22.6483 C   0  0  2  0  0  0  0  0  0  0  0  0
    7.6187    0.7776   21.4254 C   0  0  0  0  0  0  0  0  0  0  0  0
    7.5929    1.8827   20.9235 O   0  0  0  0  0  0  0  0  0  0  0  0
    6.8771   -0.2888   20.9743 N   0  0  0  0  0  0  0  0  0  0  0  0
    5.9136   -0.1406   19.9578 C   0  0  0  0  0  0  0  0  0  0  0  0
    6.0999   -0.7722   18.7561 C   0  0  0  0  0  0  0  0  0  0  0  0
    5.2856   -0.6354   17.6853 N   0  0  0  0  0  0  0  0  0  0  0  0
    4.2292    0.1270   17.8462 C   0  0  0  0  0  0  0  0  0  0  0  0
    3.8890    0.7902   19.0584 C   0  0  0  0  0  0  0  0  0  0  0  0
    2.7159    1.5801   19.1671 C   0  0  0  0  0  0  0  0  0  0  0  0
    2.3714    2.1539   20.3606 C   0  0  0  0  0  0  0  0  0  0  0  0
    3.2019    1.9876   21.4935 C   0  0  0  0  0  0  0  0  0  0  0  0
    4.3604    1.2577   21.4066 C   0  0  0  0  0  0  0  0  0  0  0  0
    4.7392    0.6447   20.1730 C   0  0  0  0  0  0  0  0  0  0  0  0
    7.0512   -1.5072   21.7328 C   0  0  0  0  0  0  0  0  0  0  0  0
    8.3288   -1.2376   22.5354 C   0  0  2  0  0  0  0  0  0  0  0  0
    8.3693   -2.0045   23.8504 C   0  0  0  0  0  0  0  0  0  0  0  0
    9.8595    0.8493   22.6074 C   0  0  0  0  0  0  0  0  0  0  0  0
   10.9157    0.1400   22.0201 C   0  0  0  0  0  0  0  0  0  0  0  0
   12.1828    0.6829   22.0326 C   0  0  0  0  0  0  0  0  0  0  0  0
   13.2014   -0.0303   21.5165 F   0  0  0  0  0  0  0  0  0  0  0  0
   12.4478    1.9326   22.5809 C   0  0  0  0  0  0  0  0  0  0  0  0
   11.3991    2.6756   23.0888 C   0  0  0  0  0  0  0  0  0  0  0  0
   10.1140    2.1338   23.1137 C   0  0  0  0  0  0  0  0  0  0  0  0
    8.9899    2.9569   23.6711 C   0  0  0  0  0  0  0  0  0  0  0  0
    9.0567    4.1790   23.7215 O   0  0  0  0  0  0  0  0  0  0  0  0
  1  2  1  0
  2  3  1  0
  3  4  1  0
  4  5  2  0
  5  6  1  0
  6  7  2  0
  7  8  1  0
  8  9  1  0
  9 10  1  0
 11 10  1  1
 11 12  1  0
 12 13  2  0
 12 14  1  0
 14 15  1  0
 15 16  2  0
 16 17  1  0
 17 18  2  0
 18 19  1  0
 19 20  2  0
 20 21  1  0
 21 22  2  0
 22 23  1  0
 23 24  2  0
 14 25  1  0
 25 26  1  0
 26 27  1  1
 11 28  1  0
 28 29  2  0
 29 30  1  0
 30 31  1  0
 30 32  2  0
 32 33  1  0
 33 34  2  0
 34 35  1  0
 35 36  2  0
  7  3  1  0
 35  9  1  0
 26 11  1  0
 34 28  1  0
 24 15  1  0
 24 19  1  0
M  END
>  <cnnaffinities>  (95) 
[6.23085, 6.17229, 6.10269, 6.12792, 6.20632, 6.13889, 6.16649, 6.18299, 6.15179, 6.20469, 6.27501, 6.29913]

>  <score>  (95) 
6.23085

>  <index>  (95) 
43

>  <Smiles>  (95) 
C(C(n1nc(c(c1C(N1C([C@@]2(C(=O)N(c3c(nc(c4c(c(c(c(c34)[H])[H])[H])[H])[H])[H])C([C@@]2(C([H])([H])[H])[H])([H])[H])c2c(c(F)c(c(c2C1=O)[H])[H])[H])([H])[H])([H])[H])[H])[H])([H])[H])([H])([H])[H]

>  <h>  (95) 
<NA>

>  <Training>  (95) 
True

>  <Success>  (95) 
True

>  <enamine_searched>  (95) 
False

>  <enamine_id>  (95) 
nan

$$$$

     RDKit          3D

 29 31  0  0  0  0  0  0  0  0999 V2000
   -8.6282   -0.1577  -24.6791 C   0  0  0  0  0  0  0  0  0  0  0  0
   -8.0137   -1.3098  -24.4206 C   0  0  0  0  0  0  0  0  0  0  0  0
   -8.7000   -2.4186  -23.6395 C   0  0  0  0  0  0  0  0  0  0  0  0
   -9.3584   -1.9534  -22.4116 N   0  0  0  0  0  0  0  0  0  0  0  0
   -8.6924   -1.1182  -21.5001 C   0  0  0  0  0  0  0  0  0  0  0  0
   -9.2303   -0.2311  -20.8640 O   0  0  0  0  0  0  0  0  0  0  0  0
   -7.3620   -1.4358  -21.2992 N   0  0  0  0  0  0  0  0  0  0  0  0
   -6.6138   -0.8579  -20.2403 C   0  0  0  0  0  0  0  0  0  0  0  0
   -6.9526   -1.0795  -18.9251 C   0  0  0  0  0  0  0  0  0  0  0  0
   -6.2746   -0.5870  -17.8541 N   0  0  0  0  0  0  0  0  0  0  0  0
   -5.2287    0.1662  -18.1107 C   0  0  0  0  0  0  0  0  0  0  0  0
   -4.7622    0.4749  -19.4210 C   0  0  0  0  0  0  0  0  0  0  0  0
   -3.6413    1.3195  -19.6430 C   0  0  0  0  0  0  0  0  0  0  0  0
   -3.2456    1.6224  -20.9182 C   0  0  0  0  0  0  0  0  0  0  0  0
   -3.9512    1.1049  -22.0306 C   0  0  0  0  0  0  0  0  0  0  0  0
   -5.0431    0.2904  -21.8446 C   0  0  0  0  0  0  0  0  0  0  0  0
   -5.4667   -0.0493  -20.5296 C   0  0  0  0  0  0  0  0  0  0  0  0
  -10.7901   -1.9930  -22.4083 C   0  0  0  0  0  0  0  0  0  0  0  0
  -11.4555   -3.2212  -22.5125 C   0  0  0  0  0  0  0  0  0  0  0  0
  -12.8463   -3.2554  -22.5161 C   0  0  0  0  0  0  0  0  0  0  0  0
  -13.5835   -2.0763  -22.4822 C   0  0  0  0  0  0  0  0  0  0  0  0
  -12.9078   -0.8611  -22.4746 C   0  0  0  0  0  0  0  0  0  0  0  0
  -13.8312    0.6170  -22.6011 Cl  0  0  0  0  0  0  0  0  0  0  0  0
  -11.5210   -0.8036  -22.3980 C   0  0  0  0  0  0  0  0  0  0  0  0
   -6.5716   -1.5638  -24.7717 C   0  0  0  0  0  0  0  0  0  0  0  0
   -5.9156   -2.4140  -24.1730 O   0  0  0  0  0  0  0  0  0  0  0  0
   -6.0325   -0.7738  -25.7366 N   0  0  0  0  0  0  0  0  0  0  0  0
   -4.6202   -0.8028  -26.0692 C   0  0  0  0  0  0  0  0  0  0  0  0
   -4.2233   -1.9572  -26.9743 C   0  0  0  0  0  0  0  0  0  0  0  0
  1  2  2  0
  2  3  1  0
  3  4  1  0
  4  5  1  0
  5  6  2  0
  5  7  1  0
  7  8  1  0
  8  9  2  0
  9 10  1  0
 10 11  2  0
 11 12  1  0
 12 13  2  0
 13 14  1  0
 14 15  2  0
 15 16  1  0
 16 17  2  0
  4 18  1  0
 18 19  2  0
 19 20  1  0
 20 21  2  0
 21 22  1  0
 22 23  1  0
 22 24  2  0
  2 25  1  0
 25 26  2  0
 25 27  1  0
 27 28  1  0
 28 29  1  0
 17  8  1  0
 24 18  1  0
 17 12  1  0
M  END
>  <cnnaffinities>  (96) 
[5.8959, 5.7098, 6.0758]

>  <score>  (96) 
5.8959

>  <index>  (96) 
51

>  <Smiles>  (96) 
C(=C(C(N(C(=O)N(c1c(nc(c2c(c(c(c(c12)[H])[H])[H])[H])[H])[H])[H])c1c(c(c(c(Cl)c1[H])[H])[H])[H])([H])[H])C(=O)N(C(C([H])([H])[H])([H])[H])[H])([H])[H]

>  <h>  (96) 
<NA>

>  <Training>  (96) 
True

>  <Success>  (96) 
True

>  <enamine_searched>  (96) 
False

>  <enamine_id>  (96) 
nan

$$$$

     RDKit          3D

 34 38  0  0  0  0  0  0  0  0999 V2000
   13.6145    0.7520   22.6483 C   0  0  0  0  0  0  0  0  0  0  0  0
   13.2482   -0.6388   22.8036 N   0  0  0  0  0  0  0  0  0  0  0  0
   12.8633   -1.3381   21.7124 C   0  0  0  0  0  0  0  0  0  0  0  0
   13.0867   -1.0003   20.5660 O   0  0  0  0  0  0  0  0  0  0  0  0
   12.0624   -2.5705   21.9701 C   0  0  0  0  0  0  0  0  0  0  0  0
   10.7876   -2.3342   22.5987 N   0  0  0  0  0  0  0  0  0  0  0  0
    9.6243   -2.1460   21.7396 C   0  0  0  0  0  0  0  0  0  0  0  0
    8.4611   -1.3874   22.4404 C   0  0  2  0  0  0  0  0  0  0  0  0
    7.2186   -1.5700   21.5562 C   0  0  0  0  0  0  0  0  0  0  0  0
    6.6743   -2.6258   21.3036 O   0  0  0  0  0  0  0  0  0  0  0  0
    6.8087   -0.3424   21.0664 N   0  0  0  0  0  0  0  0  0  0  0  0
    5.8683   -0.2329   20.0134 C   0  0  0  0  0  0  0  0  0  0  0  0
    6.1020   -0.8187   18.7970 C   0  0  0  0  0  0  0  0  0  0  0  0
    5.3229   -0.6301   17.7030 N   0  0  0  0  0  0  0  0  0  0  0  0
    4.2684    0.1390   17.8298 C   0  0  0  0  0  0  0  0  0  0  0  0
    3.8989    0.7942   19.0392 C   0  0  0  0  0  0  0  0  0  0  0  0
    2.7296    1.5936   19.1508 C   0  0  0  0  0  0  0  0  0  0  0  0
    2.4013    2.1719   20.3463 C   0  0  0  0  0  0  0  0  0  0  0  0
    3.2367    2.0066   21.4765 C   0  0  0  0  0  0  0  0  0  0  0  0
    4.3824    1.2542   21.3875 C   0  0  0  0  0  0  0  0  0  0  0  0
    4.7286    0.6161   20.1690 C   0  0  0  0  0  0  0  0  0  0  0  0
    7.8094    0.6952   21.2479 C   0  0  0  0  0  0  0  0  0  0  0  0
    8.6028    0.1805   22.4582 C   0  0  2  0  0  0  0  0  0  0  0  0
   10.0384    0.6744   22.5127 C   0  0  0  0  0  0  0  0  0  0  0  0
   10.1557    2.4500   22.7378 Cl  0  0  0  0  0  0  0  0  0  0  0  0
    8.2764   -1.9826   23.8379 C   0  0  0  0  0  0  0  0  0  0  0  0
    7.0566   -1.8894   24.5299 C   0  0  0  0  0  0  0  0  0  0  0  0
    6.9397   -2.3826   25.8239 C   0  0  0  0  0  0  0  0  0  0  0  0
    5.4340   -2.2308   26.6898 Cl  0  0  0  0  0  0  0  0  0  0  0  0
    8.0096   -3.0047   26.4615 C   0  0  0  0  0  0  0  0  0  0  0  0
    9.2105   -3.1010   25.7928 C   0  0  0  0  0  0  0  0  0  0  0  0
    9.3512   -2.5789   24.5122 C   0  0  0  0  0  0  0  0  0  0  0  0
   10.7074   -2.6627   23.9133 C   0  0  0  0  0  0  0  0  0  0  0  0
   11.7086   -2.9712   24.5557 O   0  0  0  0  0  0  0  0  0  0  0  0
  1  2  1  0
  2  3  1  0
  3  4  2  0
  3  5  1  0
  5  6  1  0
  6  7  1  0
  8  7  1  6
  8  9  1  0
  9 10  2  0
  9 11  1  0
 11 12  1  0
 12 13  2  0
 13 14  1  0
 14 15  2  0
 15 16  1  0
 16 17  2  0
 17 18  1  0
 18 19  2  0
 19 20  1  0
 20 21  2  0
 11 22  1  0
 22 23  1  0
 23 24  1  6
 24 25  1  0
  8 26  1  0
 26 27  2  0
 27 28  1  0
 28 29  1  0
 28 30  2  0
 30 31  1  0
 31 32  2  0
 32 33  1  0
 33 34  2  0
 33  6  1  0
 23  8  1  0
 32 26  1  0
 21 12  1  0
 21 16  1  0
M  END
>  <cnnaffinities>  (97) 
[6.49988, 6.42414, 6.20779, 6.10267]

>  <score>  (97) 
6.49988

>  <index>  (97) 
44

>  <Smiles>  (97) 
C(N(C(=O)C(N1C([C@@]2(C(=O)N(c3c(nc(c4c(c(c(c(c34)[H])[H])[H])[H])[H])[H])C([C@@]2(C(Cl)([H])[H])[H])([H])[H])c2c(c(Cl)c(c(c2C1=O)[H])[H])[H])([H])[H])([H])[H])[H])([H])([H])[H]

>  <h>  (97) 
<NA>

>  <Training>  (97) 
True

>  <Success>  (97) 
True

>  <enamine_searched>  (97) 
False

>  <enamine_id>  (97) 
nan

$$$$

     RDKit          3D

 32 35  0  0  0  0  0  0  0  0999 V2000
   -6.4235    7.1124  -21.5766 C   0  0  0  0  0  0  0  0  0  0  0  0
   -6.7915    7.0129  -23.0525 C   0  0  0  0  0  0  0  0  0  0  0  0
   -7.8400    5.9292  -23.2864 C   0  0  0  0  0  0  0  0  0  0  0  0
   -9.0242    6.1958  -23.2673 O   0  0  0  0  0  0  0  0  0  0  0  0
   -7.3963    4.6370  -23.4911 N   0  0  0  0  0  0  0  0  0  0  0  0
   -8.2118    3.5350  -23.8782 C   0  0  0  0  0  0  0  0  0  0  0  0
   -9.2735    3.7188  -24.7615 C   0  0  0  0  0  0  0  0  0  0  0  0
  -10.0532    2.6267  -25.1254 C   0  0  0  0  0  0  0  0  0  0  0  0
   -9.7976    1.3466  -24.6454 C   0  0  0  0  0  0  0  0  0  0  0  0
   -8.7384    1.1479  -23.7540 C   0  0  0  0  0  0  0  0  0  0  0  0
   -8.4527   -0.1780  -23.2650 N   0  0  0  0  0  0  0  0  0  0  0  0
   -8.2139   -1.2634  -24.2222 C   0  0  0  0  0  0  0  0  0  0  0  0
   -6.8097   -1.2891  -24.7939 C   0  0  0  0  0  0  0  0  0  0  0  0
   -5.9410   -2.3535  -24.5478 C   0  0  0  0  0  0  0  0  0  0  0  0
   -4.6386   -2.3410  -25.0376 C   0  0  0  0  0  0  0  0  0  0  0  0
   -4.1862   -1.2624  -25.7884 C   0  0  0  0  0  0  0  0  0  0  0  0
   -5.0529   -0.2088  -26.0618 C   0  0  0  0  0  0  0  0  0  0  0  0
   -6.3563   -0.2258  -25.5756 C   0  0  0  0  0  0  0  0  0  0  0  0
   -8.3615   -0.3414  -21.8778 C   0  0  0  0  0  0  0  0  0  0  0  0
   -9.0028    0.3624  -21.1238 O   0  0  0  0  0  0  0  0  0  0  0  0
   -7.4293   -1.4125  -21.2788 C   0  0  0  0  0  0  0  0  0  0  0  0
   -6.5739   -0.8321  -20.1712 C   0  0  0  0  0  0  0  0  0  0  0  0
   -6.8775   -1.0398  -18.8479 C   0  0  0  0  0  0  0  0  0  0  0  0
   -6.1941   -0.5363  -17.7846 N   0  0  0  0  0  0  0  0  0  0  0  0
   -5.1567    0.2211  -18.0594 C   0  0  0  0  0  0  0  0  0  0  0  0
   -4.7214    0.5345  -19.3792 C   0  0  0  0  0  0  0  0  0  0  0  0
   -3.5986    1.3701  -19.6216 C   0  0  0  0  0  0  0  0  0  0  0  0
   -3.2102    1.6606  -20.9017 C   0  0  0  0  0  0  0  0  0  0  0  0
   -3.9326    1.1245  -21.9928 C   0  0  0  0  0  0  0  0  0  0  0  0
   -5.0266    0.3158  -21.7879 C   0  0  0  0  0  0  0  0  0  0  0  0
   -5.4496   -0.0037  -20.4688 C   0  0  0  0  0  0  0  0  0  0  0  0
   -7.9363    2.2448  -23.3959 C   0  0  0  0  0  0  0  0  0  0  0  0
  1  2  1  0
  2  3  1  0
  3  4  2  0
  3  5  1  0
  5  6  1  0
  6  7  2  0
  7  8  1  0
  8  9  2  0
  9 10  1  0
 10 11  1  0
 11 12  1  0
 12 13  1  0
 13 14  2  0
 14 15  1  0
 15 16  2  0
 16 17  1  0
 17 18  2  0
 11 19  1  0
 19 20  2  0
 19 21  1  0
 21 22  1  0
 22 23  2  0
 23 24  1  0
 24 25  2  0
 25 26  1  0
 26 27  2  0
 27 28  1  0
 28 29  2  0
 29 30  1  0
 30 31  2  0
 10 32  2  0
 32  6  1  0
 18 13  1  0
 31 22  1  0
 31 26  1  0
M  END
>  <cnnaffinities>  (98) 
[5.88497, 5.96829, 5.9717, 6.05965, 5.84125, 5.69522, 5.85433, 5.85352, 5.73758, 5.8531, 5.85185]

>  <score>  (98) 
5.88497

>  <index>  (98) 
52

>  <Smiles>  (98) 
C(C(C(=O)N(c1c(c(c(c(N(C(c2c(c(c(c(c2[H])[H])[H])[H])[H])([H])[H])C(=O)C(c2c(nc(c3c(c(c(c(c23)[H])[H])[H])[H])[H])[H])([H])[H])c1[H])[H])[H])[H])[H])([H])[H])([H])([H])[H]

>  <h>  (98) 
<NA>

>  <Training>  (98) 
True

>  <Success>  (98) 
True

>  <enamine_searched>  (98) 
False

>  <enamine_id>  (98) 
nan

$$$$

     RDKit          3D

 35 39  0  0  0  0  0  0  0  0999 V2000
    5.9222    5.0340   20.8335 C   0  0  0  0  0  0  0  0  0  0  0  0
    7.0481    4.7039   21.7032 N   0  0  0  0  0  0  0  0  0  0  0  0
    6.7649    4.0594   22.8713 C   0  0  0  0  0  0  0  0  0  0  0  0
    5.6357    3.7064   23.1791 O   0  0  0  0  0  0  0  0  0  0  0  0
    7.9480    3.8206   23.8076 C   0  0  0  0  0  0  0  0  0  0  0  0
    8.7176    2.6692   23.3951 N   0  0  0  0  0  0  0  0  0  0  0  0
    8.1473    1.3535   23.6357 C   0  0  0  0  0  0  0  0  0  0  0  0
    8.5405    0.3515   22.5263 C   0  0  2  0  0  0  0  0  0  0  0  0
    7.7757    0.7004   21.2315 C   0  0  0  0  0  0  0  0  0  0  0  0
    7.9095    1.6899   20.5431 O   0  0  0  0  0  0  0  0  0  0  0  0
    6.8640   -0.2986   20.9761 N   0  0  0  0  0  0  0  0  0  0  0  0
    5.8995   -0.1478   19.9501 C   0  0  0  0  0  0  0  0  0  0  0  0
    6.0871   -0.7820   18.7510 C   0  0  0  0  0  0  0  0  0  0  0  0
    5.2646   -0.6512   17.6838 N   0  0  0  0  0  0  0  0  0  0  0  0
    4.2044    0.1076   17.8323 C   0  0  0  0  0  0  0  0  0  0  0  0
    3.8650    0.7823   19.0409 C   0  0  0  0  0  0  0  0  0  0  0  0
    2.6841    1.5623   19.1678 C   0  0  0  0  0  0  0  0  0  0  0  0
    2.3636    2.1584   20.3561 C   0  0  0  0  0  0  0  0  0  0  0  0
    3.2341    2.0460   21.4648 C   0  0  0  0  0  0  0  0  0  0  0  0
    4.3962    1.3213   21.3617 C   0  0  0  0  0  0  0  0  0  0  0  0
    4.7358    0.6572   20.1455 C   0  0  0  0  0  0  0  0  0  0  0  0
    6.7933   -1.3318   21.9878 C   0  0  0  0  0  0  0  0  0  0  0  0
    8.0649   -1.1082   22.8147 C   0  0  2  0  0  0  0  0  0  0  0  0
    7.9140   -1.5503   24.2679 C   0  0  0  0  0  0  0  0  0  0  0  0
    6.7911   -0.9333   24.8587 O   0  0  0  0  0  0  0  0  0  0  0  0
    6.6692   -1.2348   26.2265 C   0  0  0  0  0  0  0  0  0  0  0  0
   10.0412    0.4604   22.3054 C   0  0  0  0  0  0  0  0  0  0  0  0
   10.7371   -0.5658   21.6570 C   0  0  0  0  0  0  0  0  0  0  0  0
   12.1075   -0.4884   21.5088 C   0  0  0  0  0  0  0  0  0  0  0  0
   12.9274   -1.8150   20.7399 Cl  0  0  0  0  0  0  0  0  0  0  0  0
   12.8219    0.6572   21.8604 C   0  0  0  0  0  0  0  0  0  0  0  0
   12.1253    1.7154   22.4090 C   0  0  0  0  0  0  0  0  0  0  0  0
   10.7532    1.6173   22.6354 C   0  0  0  0  0  0  0  0  0  0  0  0
   10.0525    2.8336   23.1510 C   0  0  0  0  0  0  0  0  0  0  0  0
   10.6325    3.8975   23.3048 O   0  0  0  0  0  0  0  0  0  0  0  0
  1  2  1  0
  2  3  1  0
  3  4  2  0
  3  5  1  0
  5  6  1  0
  6  7  1  0
  8  7  1  1
  8  9  1  0
  9 10  2  0
  9 11  1  0
 11 12  1  0
 12 13  2  0
 13 14  1  0
 14 15  2  0
 15 16  1  0
 16 17  2  0
 17 18  1  0
 18 19  2  0
 19 20  1  0
 20 21  2  0
 11 22  1  0
 22 23  1  0
 23 24  1  1
 24 25  1  0
 25 26  1  0
  8 27  1  0
 27 28  2  0
 28 29  1  0
 29 30  1  0
 29 31  2  0
 31 32  1  0
 32 33  2  0
 33 34  1  0
 34 35  2  0
 34  6  1  0
 23  8  1  0
 33 27  1  0
 21 12  1  0
 21 16  1  0
M  END
>  <cnnaffinities>  (99) 
[6.24037, 6.46391, 6.10145, 6.27414, 6.28945, 5.95661, 5.89049]

>  <score>  (99) 
6.24037

>  <index>  (99) 
45

>  <Smiles>  (99) 
C(N(C(=O)C(N1C([C@@]2(C(=O)N(c3c(nc(c4c(c(c(c(c34)[H])[H])[H])[H])[H])[H])C([C@@]2(C(OC([H])([H])[H])([H])[H])[H])([H])[H])c2c(c(Cl)c(c(c2C1=O)[H])[H])[H])([H])[H])([H])[H])[H])([H])([H])[H]

>  <h>  (99) 
<NA>

>  <Training>  (99) 
True

>  <Success>  (99) 
True

>  <enamine_searched>  (99) 
False

>  <enamine_id>  (99) 
nan

$$$$

     RDKit          3D

 38 42  0  0  0  0  0  0  0  0999 V2000
   12.7905    2.1037   21.8096 C   0  0  0  0  0  0  0  0  0  0  0  0
   11.9849    2.4623   23.0433 C   0  0  0  0  0  0  0  0  0  0  0  0
   10.2224    2.2362   22.7991 S   0  0  0  0  0  0  0  0  0  0  0  0
    9.5521    2.5135   24.0576 O   0  0  0  0  0  0  0  0  0  0  0  0
    9.8581    2.9640   21.5869 O   0  0  0  0  0  0  0  0  0  0  0  0
   10.0083    0.5717   22.4983 N   0  0  0  0  0  0  0  0  0  0  0  0
    8.5792    0.1681   22.4582 C   0  0  1  0  0  0  0  0  0  0  0  0
    7.7805    0.7396   21.2727 C   0  0  0  0  0  0  0  0  0  0  0  0
    6.7701   -0.2767   21.0412 N   0  0  0  0  0  0  0  0  0  0  0  0
    5.8455   -0.1704   19.9813 C   0  0  0  0  0  0  0  0  0  0  0  0
    6.0717   -0.7912   18.7824 C   0  0  0  0  0  0  0  0  0  0  0  0
    5.2840   -0.6299   17.6916 N   0  0  0  0  0  0  0  0  0  0  0  0
    4.2241    0.1331   17.8207 C   0  0  0  0  0  0  0  0  0  0  0  0
    3.8539    0.7957   19.0275 C   0  0  0  0  0  0  0  0  0  0  0  0
    2.6772    1.5782   19.1503 C   0  0  0  0  0  0  0  0  0  0  0  0
    2.3571    2.1617   20.3459 C   0  0  0  0  0  0  0  0  0  0  0  0
    3.2050    2.0215   21.4674 C   0  0  0  0  0  0  0  0  0  0  0  0
    4.3604    1.2893   21.3686 C   0  0  0  0  0  0  0  0  0  0  0  0
    4.6968    0.6518   20.1468 C   0  0  0  0  0  0  0  0  0  0  0  0
    7.0784   -1.5098   21.5650 C   0  0  0  0  0  0  0  0  0  0  0  0
    6.4727   -2.5370   21.3394 O   0  0  0  0  0  0  0  0  0  0  0  0
    8.3311   -1.3737   22.4147 C   0  0  1  0  0  0  0  0  0  0  0  0
    9.4152   -2.1877   21.6735 C   0  0  0  0  0  0  0  0  0  0  0  0
   10.5836   -2.3981   22.4959 N   0  0  0  0  0  0  0  0  0  0  0  0
   11.8690   -2.0370   21.9140 C   0  0  0  0  0  0  0  0  0  0  0  0
   12.9530   -1.8022   22.9615 C   0  0  0  0  0  0  0  0  0  0  0  0
   14.0389   -2.3567   22.9767 O   0  0  0  0  0  0  0  0  0  0  0  0
   12.6010   -0.8756   23.8829 N   0  0  0  0  0  0  0  0  0  0  0  0
   13.6049   -0.4269   24.8094 C   0  0  0  0  0  0  0  0  0  0  0  0
   10.4525   -3.0226   23.7217 C   0  0  0  0  0  0  0  0  0  0  0  0
   11.3365   -3.6655   24.2607 O   0  0  0  0  0  0  0  0  0  0  0  0
    9.1494   -2.7386   24.4111 C   0  0  0  0  0  0  0  0  0  0  0  0
    8.9743   -3.2155   25.7105 C   0  0  0  0  0  0  0  0  0  0  0  0
    7.8155   -2.9447   26.4171 C   0  0  0  0  0  0  0  0  0  0  0  0
    6.8237   -2.1827   25.8034 C   0  0  0  0  0  0  0  0  0  0  0  0
    5.3470   -1.8468   26.6628 Cl  0  0  0  0  0  0  0  0  0  0  0  0
    6.9830   -1.6988   24.5167 C   0  0  0  0  0  0  0  0  0  0  0  0
    8.1535   -1.9714   23.7971 C   0  0  0  0  0  0  0  0  0  0  0  0
  1  2  1  0
  2  3  1  0
  3  4  2  0
  3  5  2  0
  3  6  1  0
  7  6  1  6
  7  8  1  0
  8  9  1  0
  9 10  1  0
 10 11  2  0
 11 12  1  0
 12 13  2  0
 13 14  1  0
 14 15  2  0
 15 16  1  0
 16 17  2  0
 17 18  1  0
 18 19  2  0
  9 20  1  0
 20 21  2  0
 20 22  1  0
 22 23  1  6
 23 24  1  0
 24 25  1  0
 25 26  1  0
 26 27  2  0
 26 28  1  0
 28 29  1  0
 24 30  1  0
 30 31  2  0
 30 32  1  0
 32 33  2  0
 33 34  1  0
 34 35  2  0
 35 36  1  0
 35 37  1  0
 37 38  2  0
 22  7  1  0
 38 32  1  0
 19 10  1  0
 38 22  1  0
 19 14  1  0
M  END
>  <cnnaffinities>  (100) 
[6.49035, 6.2547, 6.1751, 6.2928]

>  <score>  (100) 
6.49035

>  <index>  (100) 
46

>  <Smiles>  (100) 
C(C(S(=O)(=O)N([C@]1(C(N(c2c(nc(c3c(c(c(c(c23)[H])[H])[H])[H])[H])[H])C(=O)[C@]21C(N(C(C(=O)N(C([H])([H])[H])[H])([H])[H])C(=O)c1c(c(c(Cl)c(c21)[H])[H])[H])([H])[H])([H])[H])[H])[H])([H])[H])([H])([H])[H]

>  <h>  (100) 
<NA>

>  <Training>  (100) 
True

>  <Success>  (100) 
True

>  <enamine_searched>  (100) 
False

>  <enamine_id>  (100) 
nan

$$$$

     RDKit          3D

 33 37  0  0  0  0  0  0  0  0999 V2000
    5.9745    5.0316   20.8417 C   0  0  0  0  0  0  0  0  0  0  0  0
    7.0687    4.6748   21.7377 N   0  0  0  0  0  0  0  0  0  0  0  0
    6.7566    4.0253   22.8900 C   0  0  0  0  0  0  0  0  0  0  0  0
    5.6153    3.6865   23.1747 O   0  0  0  0  0  0  0  0  0  0  0  0
    7.9134    3.7520   23.8486 C   0  0  0  0  0  0  0  0  0  0  0  0
    8.6992    2.6210   23.4098 N   0  0  0  0  0  0  0  0  0  0  0  0
    8.1633    1.2902   23.6297 C   0  0  0  0  0  0  0  0  0  0  0  0
    8.5644    0.3189   22.4984 C   0  0  2  0  0  0  0  0  0  0  0  0
    7.7925    0.6890   21.2169 C   0  0  0  0  0  0  0  0  0  0  0  0
    7.9291    1.6856   20.5383 O   0  0  0  0  0  0  0  0  0  0  0  0
    6.8689   -0.2988   20.9656 N   0  0  0  0  0  0  0  0  0  0  0  0
    5.9004   -0.1474   19.9464 C   0  0  0  0  0  0  0  0  0  0  0  0
    6.0847   -0.7852   18.7490 C   0  0  0  0  0  0  0  0  0  0  0  0
    5.2614   -0.6547   17.6828 N   0  0  0  0  0  0  0  0  0  0  0  0
    4.2015    0.1047   17.8315 C   0  0  0  0  0  0  0  0  0  0  0  0
    3.8635    0.7794   19.0408 C   0  0  0  0  0  0  0  0  0  0  0  0
    2.6828    1.5591   19.1690 C   0  0  0  0  0  0  0  0  0  0  0  0
    2.3637    2.1558   20.3577 C   0  0  0  0  0  0  0  0  0  0  0  0
    3.2350    2.0436   21.4655 C   0  0  0  0  0  0  0  0  0  0  0  0
    4.3968    1.3177   21.3617 C   0  0  0  0  0  0  0  0  0  0  0  0
    4.7353    0.6545   20.1453 C   0  0  0  0  0  0  0  0  0  0  0  0
    6.7951   -1.3278   21.9771 C   0  0  0  0  0  0  0  0  0  0  0  0
    8.0894   -1.1392   22.7820 C   0  0  2  0  0  0  0  0  0  0  0  0
    7.9301   -1.5466   24.2461 C   0  0  0  0  0  0  0  0  0  0  0  0
   10.0618    0.4448   22.2834 C   0  0  0  0  0  0  0  0  0  0  0  0
   10.7823   -0.5800   21.6621 C   0  0  0  0  0  0  0  0  0  0  0  0
   12.1506   -0.4640   21.5379 C   0  0  0  0  0  0  0  0  0  0  0  0
   12.8344   -1.4996   21.0247 F   0  0  0  0  0  0  0  0  0  0  0  0
   12.8432    0.6995   21.8559 C   0  0  0  0  0  0  0  0  0  0  0  0
   12.1189    1.7499   22.3823 C   0  0  0  0  0  0  0  0  0  0  0  0
   10.7491    1.6194   22.6106 C   0  0  0  0  0  0  0  0  0  0  0  0
   10.0230    2.8177   23.1318 C   0  0  0  0  0  0  0  0  0  0  0  0
   10.5761    3.8980   23.2662 O   0  0  0  0  0  0  0  0  0  0  0  0
  1  2  1  0
  2  3  1  0
  3  4  2  0
  3  5  1  0
  5  6  1  0
  6  7  1  0
  8  7  1  1
  8  9  1  0
  9 10  2  0
  9 11  1  0
 11 12  1  0
 12 13  2  0
 13 14  1  0
 14 15  2  0
 15 16  1  0
 16 17  2  0
 17 18  1  0
 18 19  2  0
 19 20  1  0
 20 21  2  0
 11 22  1  0
 22 23  1  0
 23 24  1  1
  8 25  1  0
 25 26  2  0
 26 27  1  0
 27 28  1  0
 27 29  2  0
 29 30  1  0
 30 31  2  0
 31 32  1  0
 32 33  2  0
 32  6  1  0
 23  8  1  0
 31 25  1  0
 21 12  1  0
 21 16  1  0
M  END
>  <cnnaffinities>  (101) 
[6.00977, 6.07412, 5.84172, 5.86359]

>  <score>  (101) 
6.00977

>  <index>  (101) 
47

>  <Smiles>  (101) 
C(N(C(=O)C(N1C([C@@]2(C(=O)N(c3c(nc(c4c(c(c(c(c34)[H])[H])[H])[H])[H])[H])C([C@@]2(C([H])([H])[H])[H])([H])[H])c2c(c(F)c(c(c2C1=O)[H])[H])[H])([H])[H])([H])[H])[H])([H])([H])[H]

>  <h>  (101) 
<NA>

>  <Training>  (101) 
True

>  <Success>  (101) 
True

>  <enamine_searched>  (101) 
False

>  <enamine_id>  (101) 
nan

$$$$

     RDKit          3D

 21 23  0  0  0  0  0  0  0  0999 V2000
    6.8838    4.0415   24.9625 C   0  0  0  0  0  0  0  0  0  0  0  0
    7.4370    2.9325   24.0908 C   0  0  1  0  0  0  0  0  0  0  0  0
    8.4388    3.4603   23.0595 C   0  0  0  0  0  0  0  0  0  0  0  0
    9.3287    2.3714   22.4357 C   0  0  0  0  0  0  0  0  0  0  0  0
    8.6780    1.0701   22.2345 N   0  0  0  0  0  0  0  0  0  0  0  0
    7.8150    0.9503   21.1694 C   0  0  0  0  0  0  0  0  0  0  0  0
    7.7776    1.8017   20.3001 O   0  0  0  0  0  0  0  0  0  0  0  0
    6.9113   -0.3002   21.0539 C   0  0  0  0  0  0  0  0  0  0  0  0
    5.8679   -0.1780   19.9723 C   0  0  0  0  0  0  0  0  0  0  0  0
    6.0357   -0.8029   18.7647 C   0  0  0  0  0  0  0  0  0  0  0  0
    5.2182   -0.6791   17.6844 N   0  0  0  0  0  0  0  0  0  0  0  0
    4.1585    0.0803   17.8281 C   0  0  0  0  0  0  0  0  0  0  0  0
    3.8213    0.7456   19.0393 C   0  0  0  0  0  0  0  0  0  0  0  0
    2.6364    1.5126   19.1699 C   0  0  0  0  0  0  0  0  0  0  0  0
    2.3351    2.1527   20.3416 C   0  0  0  0  0  0  0  0  0  0  0  0
    3.2188    2.0581   21.4376 C   0  0  0  0  0  0  0  0  0  0  0  0
    4.3715    1.3144   21.3394 C   0  0  0  0  0  0  0  0  0  0  0  0
    4.7025    0.6277   20.1407 C   0  0  0  0  0  0  0  0  0  0  0  0
    8.6853    0.1776   23.3812 C   0  0  0  0  0  0  0  0  0  0  0  0
    7.7824    0.6125   24.5386 C   0  0  0  0  0  0  0  0  0  0  0  0
    7.9988    1.9458   24.9467 O   0  0  0  0  0  0  0  0  0  0  0  0
  2  1  1  1
  2  3  1  0
  3  4  1  0
  4  5  1  0
  5  6  1  0
  6  7  2  0
  6  8  1  0
  8  9  1  0
  9 10  2  0
 10 11  1  0
 11 12  2  0
 12 13  1  0
 13 14  2  0
 14 15  1  0
 15 16  2  0
 16 17  1  0
 17 18  2  0
  5 19  1  0
 19 20  1  0
 20 21  1  0
 21  2  1  0
 18  9  1  0
 18 13  1  0
M  END
>  <cnnaffinities>  (102) 
[4.80842, 4.80771, 4.98231, 5.08843, 4.74552, 4.8048, 4.94955]

>  <score>  (102) 
4.80842

>  <index>  (102) 
48

>  <Smiles>  (102) 
C([C@]1(C(C(N(C(=O)C(c2c(nc(c3c(c(c(c(c23)[H])[H])[H])[H])[H])[H])([H])[H])C(C(O1)([H])[H])([H])[H])([H])[H])([H])[H])[H])([H])([H])[H]

>  <h>  (102) 
<NA>

>  <Training>  (102) 
True

>  <Success>  (102) 
True

>  <enamine_searched>  (102) 
False

>  <enamine_id>  (102) 
nan

$$$$

     RDKit          3D

 26 29  0  0  0  0  0  0  0  0999 V2000
   11.8321   -2.6666   23.0206 C   0  0  0  0  0  0  0  0  0  0  0  0
   10.3981   -2.6388   23.2878 N   0  0  0  0  0  0  0  0  0  0  0  0
    9.4350   -2.5601   22.2066 C   0  0  0  0  0  0  0  0  0  0  0  0
    8.3250   -1.5596   22.5705 C   0  0  1  0  0  0  0  0  0  0  0  0
    7.2602   -1.5429   21.4733 C   0  0  0  0  0  0  0  0  0  0  0  0
    6.7704   -2.5664   21.0346 O   0  0  0  0  0  0  0  0  0  0  0  0
    6.8291   -0.3133   21.0076 N   0  0  0  0  0  0  0  0  0  0  0  0
    5.8639   -0.1928   19.9742 C   0  0  0  0  0  0  0  0  0  0  0  0
    6.0470   -0.8187   18.7682 C   0  0  0  0  0  0  0  0  0  0  0  0
    5.2290   -0.6667   17.6982 N   0  0  0  0  0  0  0  0  0  0  0  0
    4.1669    0.0858   17.8379 C   0  0  0  0  0  0  0  0  0  0  0  0
    3.8222    0.7461   19.0478 C   0  0  0  0  0  0  0  0  0  0  0  0
    2.6355    1.5081   19.1828 C   0  0  0  0  0  0  0  0  0  0  0  0
    2.3268    2.1231   20.3622 C   0  0  0  0  0  0  0  0  0  0  0  0
    3.2043    2.0135   21.4639 C   0  0  0  0  0  0  0  0  0  0  0  0
    4.3636    1.2829   21.3588 C   0  0  0  0  0  0  0  0  0  0  0  0
    4.7013    0.6249   20.1520 C   0  0  0  0  0  0  0  0  0  0  0  0
    7.7315   -1.9148   23.9208 C   0  0  0  0  0  0  0  0  0  0  0  0
    6.4195   -1.5750   24.2527 C   0  0  0  0  0  0  0  0  0  0  0  0
    5.9254   -1.8626   25.5137 C   0  0  0  0  0  0  0  0  0  0  0  0
    4.2911   -1.4176   25.9066 Cl  0  0  0  0  0  0  0  0  0  0  0  0
    6.7138   -2.4879   26.4746 C   0  0  0  0  0  0  0  0  0  0  0  0
    8.0192   -2.8158   26.1440 C   0  0  0  0  0  0  0  0  0  0  0  0
    8.5370   -2.5415   24.8745 C   0  0  0  0  0  0  0  0  0  0  0  0
    9.9836   -2.8427   24.5814 C   0  0  0  0  0  0  0  0  0  0  0  0
   10.7646   -3.2127   25.4432 O   0  0  0  0  0  0  0  0  0  0  0  0
  1  2  1  0
  2  3  1  0
  3  4  1  0
  4  5  1  6
  5  6  2  0
  5  7  1  0
  7  8  1  0
  8  9  2  0
  9 10  1  0
 10 11  2  0
 11 12  1  0
 12 13  2  0
 13 14  1  0
 14 15  2  0
 15 16  1  0
 16 17  2  0
  4 18  1  0
 18 19  2  0
 19 20  1  0
 20 21  1  0
 20 22  2  0
 22 23  1  0
 23 24  2  0
 24 25  1  0
 25 26  2  0
 25  2  1  0
 17  8  1  0
 24 18  1  0
 17 12  1  0
M  END
>  <cnnaffinities>  (103) 
[5.77799, 5.52019]

>  <score>  (103) 
5.77799

>  <index>  (103) 
49

>  <Smiles>  (103) 
C(N1C([C@@](C(=O)N(c2c(nc(c3c(c(c(c(c23)[H])[H])[H])[H])[H])[H])[H])(c2c(c(Cl)c(c(c2C1=O)[H])[H])[H])[H])([H])[H])([H])([H])[H]

>  <h>  (103) 
<NA>

>  <Training>  (103) 
True

>  <Success>  (103) 
True

>  <enamine_searched>  (103) 
False

>  <enamine_id>  (103) 
nan

$$$$

     RDKit          3D

 22 25  0  0  0  0  0  0  0  0999 V2000
    5.3242   -1.8081   22.1240 O   0  0  0  0  0  0  0  0  0  0  0  0
    6.4914   -1.4662   22.0555 C   0  0  0  0  0  0  0  0  0  0  0  0
    6.9027   -0.3589   21.0565 C   0  0  0  0  0  0  0  0  0  0  0  0
    5.8699   -0.1738   19.9708 C   0  0  0  0  0  0  0  0  0  0  0  0
    6.0295   -0.8077   18.7673 C   0  0  0  0  0  0  0  0  0  0  0  0
    5.2145   -0.6835   17.6873 N   0  0  0  0  0  0  0  0  0  0  0  0
    4.1585    0.0818   17.8284 C   0  0  0  0  0  0  0  0  0  0  0  0
    3.8176    0.7421   19.0416 C   0  0  0  0  0  0  0  0  0  0  0  0
    2.6281    1.5027   19.1720 C   0  0  0  0  0  0  0  0  0  0  0  0
    2.3162    2.1241   20.3506 C   0  0  0  0  0  0  0  0  0  0  0  0
    3.1911    2.0157   21.4519 C   0  0  0  0  0  0  0  0  0  0  0  0
    4.3509    1.2834   21.3531 C   0  0  0  0  0  0  0  0  0  0  0  0
    4.6936    0.6177   20.1458 C   0  0  0  0  0  0  0  0  0  0  0  0
    7.4672   -2.0571   22.8297 N   0  0  0  0  0  0  0  0  0  0  0  0
    7.2395   -3.3969   23.3783 C   0  0  0  0  0  0  0  0  0  0  0  0
    7.6139   -3.4705   24.8563 C   0  0  0  0  0  0  0  0  0  0  0  0
    8.9623   -2.8563   25.0686 C   0  0  0  0  0  0  0  0  0  0  0  0
    9.9880   -3.1506   26.4331 S   0  0  0  0  0  0  0  0  0  0  0  0
   11.1577   -2.0263   25.8431 C   0  0  0  0  0  0  0  0  0  0  0  0
   10.7751   -1.4659   24.6596 C   0  0  0  0  0  0  0  0  0  0  0  0
    9.5069   -1.9504   24.2141 C   0  0  0  0  0  0  0  0  0  0  0  0
    8.8148   -1.5203   22.9475 C   0  0  0  0  0  0  0  0  0  0  0  0
  1  2  2  0
  2  3  1  0
  3  4  1  0
  4  5  2  0
  5  6  1  0
  6  7  2  0
  7  8  1  0
  8  9  2  0
  9 10  1  0
 10 11  2  0
 11 12  1  0
 12 13  2  0
  2 14  1  0
 14 15  1  0
 15 16  1  0
 16 17  1  0
 17 18  1  0
 18 19  1  0
 19 20  2  0
 20 21  1  0
 21 22  1  0
 13  4  1  0
 22 14  1  0
 13  8  1  0
 21 17  2  0
M  END
>  <cnnaffinities>  (104) 
[5.09864, 5.09269, 5.05003, 5.10686, 5.23147]

>  <score>  (104) 
5.09864

>  <index>  (104) 
50

>  <Smiles>  (104) 
O=C(C(c1c(nc(c2c(c(c(c(c12)[H])[H])[H])[H])[H])[H])([H])[H])N1C(C(c2sc(c(c2C1([H])[H])[H])[H])([H])[H])([H])[H]

>  <h>  (104) 
<NA>

>  <Training>  (104) 
True

>  <Success>  (104) 
True

>  <enamine_searched>  (104) 
False

>  <enamine_id>  (104) 
nan

$$$$

     RDKit          3D

 42 48  0  0  0  0  0  0  0  0999 V2000
    7.0764    4.4742   29.1749 C   0  0  0  0  0  0  0  0  0  0  0  0
    6.6725    3.7380   27.9472 C   0  0  0  0  0  0  0  0  0  0  0  0
    5.8488    2.7505   27.8531 N   0  0  0  0  0  0  0  0  0  0  0  0
    5.7900    2.4188   26.5040 N   0  0  0  0  0  0  0  0  0  0  0  0
    6.5898    3.2197   25.8905 C   0  0  0  0  0  0  0  0  0  0  0  0
    6.8328    3.2836   24.4089 C   0  0  0  0  0  0  0  0  0  0  0  0
    7.9197    2.4515   23.9308 N   0  0  0  0  0  0  0  0  0  0  0  0
    7.7683    1.0005   23.9065 C   0  0  0  0  0  0  0  0  0  0  0  0
    8.4162    0.3718   22.6322 C   0  0  2  0  0  0  0  0  0  0  0  0
    7.6287    0.7840   21.3687 C   0  0  0  0  0  0  0  0  0  0  0  0
    7.6544    1.8441   20.7783 O   0  0  0  0  0  0  0  0  0  0  0  0
    6.8498   -0.2814   20.9804 N   0  0  0  0  0  0  0  0  0  0  0  0
    5.8923   -0.1490   19.9581 C   0  0  0  0  0  0  0  0  0  0  0  0
    6.0830   -0.7855   18.7594 C   0  0  0  0  0  0  0  0  0  0  0  0
    5.2724   -0.6504   17.6838 N   0  0  0  0  0  0  0  0  0  0  0  0
    4.2150    0.1137   17.8343 C   0  0  0  0  0  0  0  0  0  0  0  0
    3.8725    0.7833   19.0439 C   0  0  0  0  0  0  0  0  0  0  0  0
    2.6992    1.5722   19.1546 C   0  0  0  0  0  0  0  0  0  0  0  0
    2.3585    2.1495   20.3458 C   0  0  0  0  0  0  0  0  0  0  0  0
    3.1949    2.0035   21.4743 C   0  0  0  0  0  0  0  0  0  0  0  0
    4.3564    1.2798   21.3846 C   0  0  0  0  0  0  0  0  0  0  0  0
    4.7233    0.6465   20.1585 C   0  0  0  0  0  0  0  0  0  0  0  0
    6.9872   -1.4645   21.7899 C   0  0  0  0  0  0  0  0  0  0  0  0
    8.2726   -1.1779   22.5740 C   0  0  2  0  0  0  0  0  0  0  0  0
    8.3552   -1.9372   23.9071 C   0  0  0  0  0  0  0  0  0  0  0  0
    8.4382   -3.3790   23.7610 N   0  0  0  0  0  0  0  0  0  0  0  0
    7.3826   -4.2205   23.5842 C   0  0  0  0  0  0  0  0  0  0  0  0
    6.0494   -3.9311   23.9487 C   0  0  0  0  0  0  0  0  0  0  0  0
    5.1037   -4.8962   23.6529 C   0  0  0  0  0  0  0  0  0  0  0  0
    5.3955   -6.0560   23.0525 N   0  0  0  0  0  0  0  0  0  0  0  0
    6.6834   -6.2286   22.7847 C   0  0  0  0  0  0  0  0  0  0  0  0
    7.6932   -5.4072   23.0326 N   0  0  0  0  0  0  0  0  0  0  0  0
    9.8441    0.8707   22.5622 C   0  0  0  0  0  0  0  0  0  0  0  0
   10.8784    0.1080   22.0115 C   0  0  0  0  0  0  0  0  0  0  0  0
   12.1792    0.5656   22.0800 C   0  0  0  0  0  0  0  0  0  0  0  0
   13.4375   -0.4743   21.5003 Cl  0  0  0  0  0  0  0  0  0  0  0  0
   12.4830    1.8382   22.5530 C   0  0  0  0  0  0  0  0  0  0  0  0
   11.4506    2.6474   22.9856 C   0  0  0  0  0  0  0  0  0  0  0  0
   10.1510    2.1564   23.0285 C   0  0  0  0  0  0  0  0  0  0  0  0
    9.0930    3.0626   23.5656 C   0  0  0  0  0  0  0  0  0  0  0  0
    9.2701    4.2688   23.6722 O   0  0  0  0  0  0  0  0  0  0  0  0
    7.1936    4.0895   26.7426 O   0  0  0  0  0  0  0  0  0  0  0  0
  1  2  1  0
  2  3  2  0
  3  4  1  0
  4  5  2  0
  5  6  1  0
  6  7  1  0
  7  8  1  0
  9  8  1  1
  9 10  1  0
 10 11  2  0
 10 12  1  0
 12 13  1  0
 13 14  2  0
 14 15  1  0
 15 16  2  0
 16 17  1  0
 17 18  2  0
 18 19  1  0
 19 20  2  0
 20 21  1  0
 21 22  2  0
 12 23  1  0
 23 24  1  0
 24 25  1  1
 25 26  1  0
 26 27  1  0
 27 28  2  0
 28 29  1  0
 29 30  2  0
 30 31  1  0
 31 32  2  0
  9 33  1  0
 33 34  2  0
 34 35  1  0
 35 36  1  0
 35 37  2  0
 37 38  1  0
 38 39  2  0
 39 40  1  0
 40 41  2  0
  5 42  1  0
 42  2  1  0
 40  7  1  0
 24  9  1  0
 32 27  1  0
 39 33  1  0
 22 13  1  0
 22 17  1  0
M  END
>  <cnnaffinities>  (105) 
[6.81634, 6.81537]

>  <score>  (105) 
6.81634

>  <index>  (105) 
51

>  <Smiles>  (105) 
C(c1nnc(C(N2C([C@@]3(C(=O)N(c4c(nc(c5c(c(c(c(c45)[H])[H])[H])[H])[H])[H])C([C@@]3(C(N(c3c(c(nc(n3)[H])[H])[H])[H])([H])[H])[H])([H])[H])c3c(c(Cl)c(c(c3C2=O)[H])[H])[H])([H])[H])([H])[H])o1)([H])([H])[H]

>  <h>  (105) 
<NA>

>  <Training>  (105) 
True

>  <Success>  (105) 
True

>  <enamine_searched>  (105) 
False

>  <enamine_id>  (105) 
nan

$$$$

     RDKit          3D

 34 38  0  0  0  0  0  0  0  0999 V2000
   -7.7356    4.3791  -22.3619 C   0  0  0  0  0  0  0  0  0  0  0  0
   -6.8137    3.4529  -23.1303 C   0  0  0  0  0  0  0  0  0  0  0  0
   -7.6002    2.6965  -24.0901 N   0  0  0  0  0  0  0  0  0  0  0  0
   -6.9989    1.6991  -24.7839 C   0  0  0  0  0  0  0  0  0  0  0  0
   -5.7979    1.4811  -24.6986 O   0  0  0  0  0  0  0  0  0  0  0  0
   -7.9088    0.8685  -25.6898 C   0  0  0  0  0  0  0  0  0  0  0  0
   -8.8572    0.1016  -24.9042 N   0  0  0  0  0  0  0  0  0  0  0  0
   -8.4632   -1.1926  -24.3756 C   0  0  0  0  0  0  0  0  0  0  0  0
   -9.0283   -1.4601  -22.9541 C   0  0  2  0  0  0  0  0  0  0  0  0
   -8.3053   -0.5440  -21.9385 C   0  0  0  0  0  0  0  0  0  0  0  0
   -8.4227    0.6618  -21.8300 O   0  0  0  0  0  0  0  0  0  0  0  0
   -7.4644   -1.3230  -21.1820 N   0  0  0  0  0  0  0  0  0  0  0  0
   -6.6284   -0.7933  -20.1753 C   0  0  0  0  0  0  0  0  0  0  0  0
   -6.9135   -1.0653  -18.8624 C   0  0  0  0  0  0  0  0  0  0  0  0
   -6.2278   -0.5735  -17.8038 N   0  0  0  0  0  0  0  0  0  0  0  0
   -5.1972    0.1955  -18.0745 C   0  0  0  0  0  0  0  0  0  0  0  0
   -4.7629    0.5152  -19.3927 C   0  0  0  0  0  0  0  0  0  0  0  0
   -3.6285    1.3391  -19.6221 C   0  0  0  0  0  0  0  0  0  0  0  0
   -3.2186    1.6157  -20.8971 C   0  0  0  0  0  0  0  0  0  0  0  0
   -3.9172    1.0834  -22.0034 C   0  0  0  0  0  0  0  0  0  0  0  0
   -5.0176    0.2842  -21.8102 C   0  0  0  0  0  0  0  0  0  0  0  0
   -5.4816   -0.0055  -20.4931 C   0  0  0  0  0  0  0  0  0  0  0  0
   -7.4377   -2.7175  -21.5538 C   0  0  0  0  0  0  0  0  0  0  0  0
   -8.6703   -2.8919  -22.4479 C   0  0  2  0  0  0  0  0  0  0  0  0
   -8.4474   -3.9568  -23.5142 C   0  0  0  0  0  0  0  0  0  0  0  0
  -10.5131   -1.1506  -22.9832 C   0  0  0  0  0  0  0  0  0  0  0  0
  -11.4056   -1.7649  -22.1042 C   0  0  0  0  0  0  0  0  0  0  0  0
  -12.7587   -1.4876  -22.1684 C   0  0  0  0  0  0  0  0  0  0  0  0
  -13.8211   -2.4319  -21.1667 Cl  0  0  0  0  0  0  0  0  0  0  0  0
  -13.2787   -0.5045  -23.0110 C   0  0  0  0  0  0  0  0  0  0  0  0
  -12.3818    0.1787  -23.8115 C   0  0  0  0  0  0  0  0  0  0  0  0
  -11.0239   -0.1556  -23.8298 C   0  0  0  0  0  0  0  0  0  0  0  0
  -10.1170    0.5990  -24.7540 C   0  0  0  0  0  0  0  0  0  0  0  0
  -10.4747    1.6243  -25.3186 O   0  0  0  0  0  0  0  0  0  0  0  0
  1  2  1  0
  2  3  1  0
  3  4  1  0
  4  5  2  0
  4  6  1  0
  6  7  1  0
  7  8  1  0
  9  8  1  6
  9 10  1  0
 10 11  2  0
 10 12  1  0
 12 13  1  0
 13 14  2  0
 14 15  1  0
 15 16  2  0
 16 17  1  0
 17 18  2  0
 18 19  1  0
 19 20  2  0
 20 21  1  0
 21 22  2  0
 12 23  1  0
 23 24  1  0
 24 25  1  6
  9 26  1  0
 26 27  2  0
 27 28  1  0
 28 29  1  0
 28 30  2  0
 30 31  1  0
 31 32  2  0
 32 33  1  0
 33 34  2  0
 33  7  1  0
 24  9  1  0
 32 26  1  0
 22 13  1  0
 22 17  1  0
M  END
>  <cnnaffinities>  (106) 
[6.54561]

>  <score>  (106) 
6.54561

>  <index>  (106) 
53

>  <Smiles>  (106) 
C(C(N(C(=O)C(N1C([C@@]2(C(=O)N(c3c(nc(c4c(c(c(c(c34)[H])[H])[H])[H])[H])[H])C([C@@]2(C([H])([H])[H])[H])([H])[H])c2c(c(Cl)c(c(c2C1=O)[H])[H])[H])([H])[H])([H])[H])[H])([H])[H])([H])([H])[H]

>  <h>  (106) 
<NA>

>  <Training>  (106) 
True

>  <Success>  (106) 
True

>  <enamine_searched>  (106) 
False

>  <enamine_id>  (106) 
nan

$$$$

     RDKit          3D

 40 45  0  0  0  0  0  0  0  0999 V2000
    9.0504   -7.8074   23.9287 C   0  0  0  0  0  0  0  0  0  0  0  0
    7.8983   -6.9161   23.9886 N   0  0  0  0  0  0  0  0  0  0  0  0
    8.0835   -5.5730   23.9110 C   0  0  0  0  0  0  0  0  0  0  0  0
    9.1860   -5.0764   24.0837 O   0  0  0  0  0  0  0  0  0  0  0  0
    6.8449   -4.7101   23.5575 C   0  0  0  0  0  0  0  0  0  0  0  0
    7.0519   -3.3249   23.9194 N   0  0  0  0  0  0  0  0  0  0  0  0
    7.9740   -2.5249   23.1273 C   0  0  0  0  0  0  0  0  0  0  0  0
    7.5561   -1.0215   23.1084 C   0  0  2  0  0  0  0  0  0  0  0  0
    6.3377   -0.9205   22.1523 C   0  0  0  0  0  0  0  0  0  0  0  0
    5.2219   -1.3438   22.3385 O   0  0  0  0  0  0  0  0  0  0  0  0
    6.7547   -0.3186   20.9784 N   0  0  0  0  0  0  0  0  0  0  0  0
    5.8917   -0.0836   19.8994 C   0  0  0  0  0  0  0  0  0  0  0  0
    6.1792   -0.5861   18.6565 C   0  0  0  0  0  0  0  0  0  0  0  0
    5.3844   -0.4454   17.5704 N   0  0  0  0  0  0  0  0  0  0  0  0
    4.2737    0.2374   17.7283 C   0  0  0  0  0  0  0  0  0  0  0  0
    3.8884    0.8623   18.9505 C   0  0  0  0  0  0  0  0  0  0  0  0
    2.7090    1.6456   19.0621 C   0  0  0  0  0  0  0  0  0  0  0  0
    2.3827    2.2451   20.2479 C   0  0  0  0  0  0  0  0  0  0  0  0
    3.2262    2.1153   21.3726 C   0  0  0  0  0  0  0  0  0  0  0  0
    4.3790    1.3814   21.2870 C   0  0  0  0  0  0  0  0  0  0  0  0
    4.7215    0.7150   20.0758 C   0  0  0  0  0  0  0  0  0  0  0  0
    8.1901   -0.1489   20.9019 C   0  0  0  0  0  0  0  0  0  0  0  0
    8.5888   -0.1100   22.3742 C   0  0  2  0  0  0  0  0  0  0  0  0
   10.0532   -0.4324   22.5673 C   0  0  0  0  0  0  0  0  0  0  0  0
   10.4571   -0.2907   23.9508 N   0  0  0  0  0  0  0  0  0  0  0  0
   11.7071   -0.7213   24.2792 C   0  0  0  0  0  0  0  0  0  0  0  0
   12.1153   -0.8750   25.6148 C   0  0  0  0  0  0  0  0  0  0  0  0
   13.4044   -1.3119   25.8031 C   0  0  0  0  0  0  0  0  0  0  0  0
   14.2489   -1.5944   24.7996 N   0  0  0  0  0  0  0  0  0  0  0  0
   13.7563   -1.4068   23.5871 C   0  0  0  0  0  0  0  0  0  0  0  0
   12.5418   -0.9722   23.2646 N   0  0  0  0  0  0  0  0  0  0  0  0
    7.2497   -0.5764   24.5312 C   0  0  0  0  0  0  0  0  0  0  0  0
    7.2063    0.7803   24.9040 C   0  0  0  0  0  0  0  0  0  0  0  0
    6.9492    1.1443   26.2168 C   0  0  0  0  0  0  0  0  0  0  0  0
    6.8980    2.8341   26.6289 Cl  0  0  0  0  0  0  0  0  0  0  0  0
    6.7308    0.1947   27.2142 C   0  0  0  0  0  0  0  0  0  0  0  0
    6.7462   -1.1384   26.8494 C   0  0  0  0  0  0  0  0  0  0  0  0
    6.9690   -1.5218   25.5280 C   0  0  0  0  0  0  0  0  0  0  0  0
    6.8207   -2.9785   25.2230 C   0  0  0  0  0  0  0  0  0  0  0  0
    6.4842   -3.7879   26.0759 O   0  0  0  0  0  0  0  0  0  0  0  0
  1  2  1  0
  2  3  1  0
  3  4  2  0
  3  5  1  0
  5  6  1  0
  6  7  1  0
  8  7  1  1
  8  9  1  0
  9 10  2  0
  9 11  1  0
 11 12  1  0
 12 13  2  0
 13 14  1  0
 14 15  2  0
 15 16  1  0
 16 17  2  0
 17 18  1  0
 18 19  2  0
 19 20  1  0
 20 21  2  0
 11 22  1  0
 22 23  1  0
 23 24  1  6
 24 25  1  0
 25 26  1  0
 26 27  2  0
 27 28  1  0
 28 29  2  0
 29 30  1  0
 30 31  2  0
  8 32  1  0
 32 33  2  0
 33 34  1  0
 34 35  1  0
 34 36  2  0
 36 37  1  0
 37 38  2  0
 38 39  1  0
 39 40  2  0
 39  6  1  0
 23  8  1  0
 31 26  1  0
 38 32  1  0
 21 12  1  0
 21 16  1  0
M  END
>  <cnnaffinities>  (107) 
[6.82731, 6.81256]

>  <score>  (107) 
6.82731

>  <index>  (107) 
52

>  <Smiles>  (107) 
C(N(C(=O)C(N1C([C@@]2(C(=O)N(c3c(nc(c4c(c(c(c(c34)[H])[H])[H])[H])[H])[H])C([C@@]2(C(N(c2c(c(nc(n2)[H])[H])[H])[H])([H])[H])[H])([H])[H])c2c(c(Cl)c(c(c2C1=O)[H])[H])[H])([H])[H])([H])[H])[H])([H])([H])[H]

>  <h>  (107) 
<NA>

>  <Training>  (107) 
True

>  <Success>  (107) 
True

>  <enamine_searched>  (107) 
False

>  <enamine_id>  (107) 
nan

$$$$

     RDKit          3D

 44 51  0  0  0  0  0  0  0  0999 V2000
    9.2624    4.1751   23.7015 O   0  0  0  0  0  0  0  0  0  0  0  0
    9.0976    2.9645   23.6284 C   0  0  0  0  0  0  0  0  0  0  0  0
   10.1629    2.0632   23.0681 C   0  0  0  0  0  0  0  0  0  0  0  0
   11.4686    2.5511   23.0171 C   0  0  0  0  0  0  0  0  0  0  0  0
   12.5013    1.7457   22.5697 C   0  0  0  0  0  0  0  0  0  0  0  0
   12.1689    0.4895   22.0637 C   0  0  0  0  0  0  0  0  0  0  0  0
   13.4415   -0.5640   21.5115 Cl  0  0  0  0  0  0  0  0  0  0  0  0
   10.8673    0.0236   22.0151 C   0  0  0  0  0  0  0  0  0  0  0  0
    9.8405    0.7814   22.5960 C   0  0  0  0  0  0  0  0  0  0  0  0
    8.4052    0.3033   22.6567 C   0  0  1  0  0  0  0  0  0  0  0  0
    7.7721    0.9153   23.9459 C   0  0  0  0  0  0  0  0  0  0  0  0
    7.9561    2.3548   24.0779 N   0  0  0  0  0  0  0  0  0  0  0  0
    6.7639    3.1889   24.2580 C   0  0  0  0  0  0  0  0  0  0  0  0
    6.1377    3.0226   25.6361 C   0  0  0  0  0  0  0  0  0  0  0  0
    7.1487    3.4603   26.6579 N   0  0  0  0  0  0  0  0  0  0  0  0
    6.8304    3.3789   28.1318 C   0  0  0  0  0  0  0  0  0  0  0  0
    7.0506    4.9013   28.3383 C   0  0  0  0  0  0  0  0  0  0  0  0
    7.8900    5.4634   29.4955 C   0  0  0  0  0  0  0  0  0  0  0  0
    6.7988    6.2641   29.9518 O   0  0  0  0  0  0  0  0  0  0  0  0
    5.9505    5.7945   28.9008 C   0  0  0  0  0  0  0  0  0  0  0  0
    7.4135    4.9700   26.8276 C   0  0  0  0  0  0  0  0  0  0  0  0
    7.6214    0.7607   21.4059 C   0  0  0  0  0  0  0  0  0  0  0  0
    7.6466    1.8480   20.8648 O   0  0  0  0  0  0  0  0  0  0  0  0
    6.8408   -0.2902   20.9873 N   0  0  0  0  0  0  0  0  0  0  0  0
    5.8943   -0.1409   19.9582 C   0  0  0  0  0  0  0  0  0  0  0  0
    6.0907   -0.7736   18.7594 C   0  0  0  0  0  0  0  0  0  0  0  0
    5.2812   -0.6368   17.6841 N   0  0  0  0  0  0  0  0  0  0  0  0
    4.2214    0.1250   17.8272 C   0  0  0  0  0  0  0  0  0  0  0  0
    3.8739    0.7906   19.0374 C   0  0  0  0  0  0  0  0  0  0  0  0
    2.7015    1.5826   19.1478 C   0  0  0  0  0  0  0  0  0  0  0  0
    2.3581    2.1577   20.3400 C   0  0  0  0  0  0  0  0  0  0  0  0
    3.1868    1.9951   21.4737 C   0  0  0  0  0  0  0  0  0  0  0  0
    4.3438    1.2626   21.3860 C   0  0  0  0  0  0  0  0  0  0  0  0
    4.7204    0.6470   20.1551 C   0  0  0  0  0  0  0  0  0  0  0  0
    6.9520   -1.4870   21.7823 C   0  0  0  0  0  0  0  0  0  0  0  0
    8.2258   -1.2382   22.5866 C   0  0  2  0  0  0  0  0  0  0  0  0
    8.2508   -2.0073   23.9125 C   0  0  0  0  0  0  0  0  0  0  0  0
    8.2592   -3.4406   23.7094 N   0  0  0  0  0  0  0  0  0  0  0  0
    7.1596   -4.2343   23.7443 C   0  0  0  0  0  0  0  0  0  0  0  0
    7.3660   -5.5329   23.4263 N   0  0  0  0  0  0  0  0  0  0  0  0
    6.2928   -6.3072   23.4484 C   0  0  0  0  0  0  0  0  0  0  0  0
    5.0238   -5.8435   23.7844 C   0  0  0  0  0  0  0  0  0  0  0  0
    4.9347   -4.4990   24.1062 C   0  0  0  0  0  0  0  0  0  0  0  0
    5.9850   -3.6773   24.0875 N   0  0  0  0  0  0  0  0  0  0  0  0
  1  2  2  0
  2  3  1  0
  3  4  2  0
  4  5  1  0
  5  6  2  0
  6  7  1  0
  6  8  1  0
  8  9  2  0
  9 10  1  0
 10 11  1  1
 11 12  1  0
 12 13  1  0
 13 14  1  0
 14 15  1  0
 15 16  1  0
 16 17  1  0
 17 18  1  0
 18 19  1  0
 19 20  1  0
 17 21  1  0
 10 22  1  0
 22 23  2  0
 22 24  1  0
 24 25  1  0
 25 26  2  0
 26 27  1  0
 27 28  2  0
 28 29  1  0
 29 30  2  0
 30 31  1  0
 31 32  2  0
 32 33  1  0
 33 34  2  0
 24 35  1  0
 35 36  1  0
 36 37  1  1
 37 38  1  0
 38 39  1  0
 39 40  2  0
 40 41  1  0
 41 42  2  0
 42 43  1  0
 43 44  2  0
 12  2  1  0
 21 15  1  0
 34 25  1  0
 44 39  1  0
  9  3  1  0
 36 10  1  0
 20 17  1  0
 34 29  1  0
M  CHG  1  15   1
M  END
>  <cnnaffinities>  (108) 
[6.76437]

>  <score>  (108) 
6.76437

>  <index>  (108) 
53

>  <Smiles>  (108) 
O=C1c2c(c(c(Cl)c(c2[C@@]2(C(N1C(C([N+]1(C(C3(C(OC3([H])[H])([H])[H])C1([H])[H])([H])[H])[H])([H])[H])([H])[H])([H])[H])C(=O)N(c1c(nc(c3c(c(c(c(c13)[H])[H])[H])[H])[H])[H])C([C@@]2(C(N(c1nc(c(c(n1)[H])[H])[H])[H])([H])[H])[H])([H])[H])[H])[H])[H]

>  <h>  (108) 
<NA>

>  <Training>  (108) 
True

>  <Success>  (108) 
True

>  <enamine_searched>  (108) 
False

>  <enamine_id>  (108) 
nan

$$$$

     RDKit          3D

 24 27  0  0  0  0  0  0  0  0999 V2000
   -9.4000   -3.8591  -22.7308 C   0  0  0  0  0  0  0  0  0  0  0  0
   -8.6374   -2.6785  -22.3752 N   0  0  0  0  0  0  0  0  0  0  0  0
   -8.7249   -1.4138  -22.8872 C   0  0  0  0  0  0  0  0  0  0  0  0
   -9.5757   -1.0545  -24.0588 C   0  0  0  0  0  0  0  0  0  0  0  0
  -10.9992   -0.8206  -23.6003 C   0  0  0  0  0  0  0  0  0  0  0  0
  -12.0044   -1.7541  -23.8404 C   0  0  0  0  0  0  0  0  0  0  0  0
  -13.3017   -1.5360  -23.3767 C   0  0  0  0  0  0  0  0  0  0  0  0
  -13.5965   -0.3802  -22.6586 C   0  0  0  0  0  0  0  0  0  0  0  0
  -12.5886    0.5446  -22.3901 C   0  0  0  0  0  0  0  0  0  0  0  0
  -11.2937    0.3178  -22.8479 C   0  0  0  0  0  0  0  0  0  0  0  0
   -8.0204   -0.5591  -22.2047 N   0  0  0  0  0  0  0  0  0  0  0  0
   -7.4076   -1.3006  -21.2335 N   0  0  0  0  0  0  0  0  0  0  0  0
   -6.6260   -0.7458  -20.1903 C   0  0  0  0  0  0  0  0  0  0  0  0
   -6.9179   -1.0312  -18.8765 C   0  0  0  0  0  0  0  0  0  0  0  0
   -6.2183   -0.5508  -17.8208 N   0  0  0  0  0  0  0  0  0  0  0  0
   -5.1834    0.2084  -18.0954 C   0  0  0  0  0  0  0  0  0  0  0  0
   -4.7376    0.5328  -19.4045 C   0  0  0  0  0  0  0  0  0  0  0  0
   -3.5990    1.3475  -19.6302 C   0  0  0  0  0  0  0  0  0  0  0  0
   -3.1872    1.6104  -20.9052 C   0  0  0  0  0  0  0  0  0  0  0  0
   -3.8775    1.0593  -22.0097 C   0  0  0  0  0  0  0  0  0  0  0  0
   -4.9853    0.2746  -21.8199 C   0  0  0  0  0  0  0  0  0  0  0  0
   -5.4676    0.0264  -20.5046 C   0  0  0  0  0  0  0  0  0  0  0  0
   -7.6470   -2.6530  -21.3962 C   0  0  0  0  0  0  0  0  0  0  0  0
   -7.0780   -3.5720  -20.8519 O   0  0  0  0  0  0  0  0  0  0  0  0
  1  2  1  0
  2  3  1  0
  3  4  1  0
  4  5  1  0
  5  6  2  0
  6  7  1  0
  7  8  2  0
  8  9  1  0
  9 10  2  0
  3 11  2  0
 11 12  1  0
 12 13  1  0
 13 14  2  0
 14 15  1  0
 15 16  2  0
 16 17  1  0
 17 18  2  0
 18 19  1  0
 19 20  2  0
 20 21  1  0
 21 22  2  0
 12 23  1  0
 23 24  2  0
 23  2  1  0
 10  5  1  0
 22 13  1  0
 22 17  1  0
M  END
>  <cnnaffinities>  (109) 
[5.3196, 5.31954, 5.16837, 5.16878, 5.37781, 5.37783]

>  <score>  (109) 
5.3196

>  <index>  (109) 
54

>  <Smiles>  (109) 
C(n1c(C(c2c(c(c(c(c2[H])[H])[H])[H])[H])([H])[H])nn(c2c(nc(c3c(c(c(c(c23)[H])[H])[H])[H])[H])[H])c1=O)([H])([H])[H]

>  <h>  (109) 
<NA>

>  <Training>  (109) 
True

>  <Success>  (109) 
True

>  <enamine_searched>  (109) 
False

>  <enamine_id>  (109) 
nan

$$$$

     RDKit          3D

 40 45  0  0  0  0  0  0  0  0999 V2000
    7.1871    6.3696   21.7976 C   0  0  0  0  0  0  0  0  0  0  0  0
    7.3886    5.5382   22.9670 N   0  0  0  0  0  0  0  0  0  0  0  0
    6.7358    4.3408   23.0355 C   0  0  0  0  0  0  0  0  0  0  0  0
    5.8900    3.9774   22.2334 O   0  0  0  0  0  0  0  0  0  0  0  0
    7.1666    3.4709   24.2182 C   0  0  0  0  0  0  0  0  0  0  0  0
    8.1392    2.4759   23.7864 N   0  0  0  0  0  0  0  0  0  0  0  0
    7.8187    1.0576   23.8198 C   0  0  0  0  0  0  0  0  0  0  0  0
    8.4220    0.2774   22.6148 C   0  0  2  0  0  0  0  0  0  0  0  0
    7.7092    0.6581   21.3005 C   0  0  0  0  0  0  0  0  0  0  0  0
    7.8607    1.6513   20.6218 O   0  0  0  0  0  0  0  0  0  0  0  0
    6.8135   -0.3407   20.9978 N   0  0  0  0  0  0  0  0  0  0  0  0
    5.8804   -0.1753   19.9566 C   0  0  0  0  0  0  0  0  0  0  0  0
    6.0843   -0.7887   18.7493 C   0  0  0  0  0  0  0  0  0  0  0  0
    5.2774   -0.6431   17.6718 N   0  0  0  0  0  0  0  0  0  0  0  0
    4.2149    0.1138   17.8205 C   0  0  0  0  0  0  0  0  0  0  0  0
    3.8663    0.7745   19.0337 C   0  0  0  0  0  0  0  0  0  0  0  0
    2.6927    1.5653   19.1548 C   0  0  0  0  0  0  0  0  0  0  0  0
    2.3647    2.1485   20.3459 C   0  0  0  0  0  0  0  0  0  0  0  0
    3.2201    2.0148   21.4629 C   0  0  0  0  0  0  0  0  0  0  0  0
    4.3816    1.2900   21.3624 C   0  0  0  0  0  0  0  0  0  0  0  0
    4.7223    0.6356   20.1462 C   0  0  0  0  0  0  0  0  0  0  0  0
    6.8456   -1.4830   21.8754 C   0  0  0  0  0  0  0  0  0  0  0  0
    8.1298   -1.2498   22.6749 C   0  0  2  0  0  0  0  0  0  0  0  0
    8.0965   -1.9220   24.0516 C   0  0  0  0  0  0  0  0  0  0  0  0
    8.0140   -3.3623   23.9326 N   0  0  0  0  0  0  0  0  0  0  0  0
    6.8457   -4.0630   23.9845 C   0  0  0  0  0  0  0  0  0  0  0  0
    6.8511   -5.4560   23.7172 C   0  0  0  0  0  0  0  0  0  0  0  0
    5.7595   -6.1914   23.7382 N   0  0  0  0  0  0  0  0  0  0  0  0
    4.6170   -5.5549   24.0444 C   0  0  0  0  0  0  0  0  0  0  0  0
    4.6082   -4.2031   24.3254 C   0  0  0  0  0  0  0  0  0  0  0  0
    5.7125   -3.4410   24.2963 N   0  0  0  0  0  0  0  0  0  0  0  0
    9.8870    0.6403   22.5188 C   0  0  0  0  0  0  0  0  0  0  0  0
   10.8077   -0.2123   21.8957 C   0  0  0  0  0  0  0  0  0  0  0  0
   12.1537    0.1035   21.9041 C   0  0  0  0  0  0  0  0  0  0  0  0
   13.2973   -1.0674   21.3001 Cl  0  0  0  0  0  0  0  0  0  0  0  0
   12.6255    1.3169   22.4084 C   0  0  0  0  0  0  0  0  0  0  0  0
   11.6986    2.2186   22.9076 C   0  0  0  0  0  0  0  0  0  0  0  0
   10.3445    1.8883   22.9647 C   0  0  0  0  0  0  0  0  0  0  0  0
    9.3915    2.9141   23.4890 C   0  0  0  0  0  0  0  0  0  0  0  0
    9.7192    4.0928   23.6227 O   0  0  0  0  0  0  0  0  0  0  0  0
  1  2  1  0
  2  3  1  0
  3  4  2  0
  3  5  1  0
  5  6  1  0
  6  7  1  0
  8  7  1  1
  8  9  1  0
  9 10  2  0
  9 11  1  0
 11 12  1  0
 12 13  2  0
 13 14  1  0
 14 15  2  0
 15 16  1  0
 16 17  2  0
 17 18  1  0
 18 19  2  0
 19 20  1  0
 20 21  2  0
 11 22  1  0
 22 23  1  0
 23 24  1  1
 24 25  1  0
 25 26  1  0
 26 27  2  0
 27 28  1  0
 28 29  2  0
 29 30  1  0
 30 31  2  0
  8 32  1  0
 32 33  2  0
 33 34  1  0
 34 35  1  0
 34 36  2  0
 36 37  1  0
 37 38  2  0
 38 39  1  0
 39 40  2  0
 39  6  1  0
 23  8  1  0
 31 26  1  0
 38 32  1  0
 21 12  1  0
 21 16  1  0
M  END
>  <cnnaffinities>  (110) 
[6.94177, 6.72541, 6.54097]

>  <score>  (110) 
6.94177

>  <index>  (110) 
54

>  <Smiles>  (110) 
C(N(C(=O)C(N1C([C@@]2(C(=O)N(c3c(nc(c4c(c(c(c(c34)[H])[H])[H])[H])[H])[H])C([C@@]2(C(N(c2c(nc(c(n2)[H])[H])[H])[H])([H])[H])[H])([H])[H])c2c(c(Cl)c(c(c2C1=O)[H])[H])[H])([H])[H])([H])[H])[H])([H])([H])[H]

>  <h>  (110) 
<NA>

>  <Training>  (110) 
True

>  <Success>  (110) 
True

>  <enamine_searched>  (110) 
False

>  <enamine_id>  (110) 
nan

$$$$

     RDKit          3D

 34 39  0  0  0  0  0  0  0  0999 V2000
    4.8598    4.6655   20.5863 C   0  0  0  0  0  0  0  0  0  0  0  0
    6.0431    4.7701   21.4081 N   0  0  0  0  0  0  0  0  0  0  0  0
    7.0657    5.6151   21.1768 C   0  0  0  0  0  0  0  0  0  0  0  0
    8.0112    5.3803   22.1442 C   0  0  0  0  0  0  0  0  0  0  0  0
    7.4601    4.3486   22.9350 C   0  0  0  0  0  0  0  0  0  0  0  0
    8.0514    3.6578   24.1385 C   0  0  0  0  0  0  0  0  0  0  0  0
    8.8053    2.4654   23.7720 N   0  0  0  0  0  0  0  0  0  0  0  0
    8.1676    1.1664   23.8206 C   0  0  0  0  0  0  0  0  0  0  0  0
    8.4701    0.2706   22.5986 C   0  0  1  0  0  0  0  0  0  0  0  0
    7.9078   -1.1401   22.9002 C   0  0  0  0  0  0  0  0  0  0  0  0
    7.0682   -1.5726   21.6941 C   0  0  0  0  0  0  0  0  0  0  0  0
    6.7831   -0.3059   21.0542 N   0  0  0  0  0  0  0  0  0  0  0  0
    5.8733   -0.1455   19.9917 C   0  0  0  0  0  0  0  0  0  0  0  0
    6.0899   -0.7679   18.7898 C   0  0  0  0  0  0  0  0  0  0  0  0
    5.2969   -0.6218   17.7043 N   0  0  0  0  0  0  0  0  0  0  0  0
    4.2393    0.1473   17.8429 C   0  0  0  0  0  0  0  0  0  0  0  0
    3.8879    0.8258   19.0463 C   0  0  0  0  0  0  0  0  0  0  0  0
    2.7107    1.6086   19.1594 C   0  0  0  0  0  0  0  0  0  0  0  0
    2.3555    2.1710   20.3549 C   0  0  0  0  0  0  0  0  0  0  0  0
    3.1945    2.0366   21.4817 C   0  0  0  0  0  0  0  0  0  0  0  0
    4.3691    1.3315   21.3895 C   0  0  0  0  0  0  0  0  0  0  0  0
    4.7300    0.6833   20.1710 C   0  0  0  0  0  0  0  0  0  0  0  0
    7.6933    0.6892   21.3352 C   0  0  0  0  0  0  0  0  0  0  0  0
    7.8431    1.6853   20.6621 O   0  0  0  0  0  0  0  0  0  0  0  0
    9.9610    0.3286   22.3460 C   0  0  0  0  0  0  0  0  0  0  0  0
   10.6183   -0.7318   21.7298 C   0  0  0  0  0  0  0  0  0  0  0  0
   11.9846   -0.6787   21.5247 C   0  0  0  0  0  0  0  0  0  0  0  0
   12.7785   -2.0775   20.8743 Cl  0  0  0  0  0  0  0  0  0  0  0  0
   12.7382    0.4529   21.8491 C   0  0  0  0  0  0  0  0  0  0  0  0
   12.0787    1.5342   22.3983 C   0  0  0  0  0  0  0  0  0  0  0  0
   10.7100    1.4661   22.6571 C   0  0  0  0  0  0  0  0  0  0  0  0
   10.0795    2.6501   23.3038 C   0  0  0  0  0  0  0  0  0  0  0  0
   10.6675    3.7172   23.3986 O   0  0  0  0  0  0  0  0  0  0  0  0
    6.2619    3.9858   22.4774 N   0  0  0  0  0  0  0  0  0  0  0  0
  1  2  1  0
  2  3  1  0
  3  4  2  0
  4  5  1  0
  5  6  1  0
  6  7  1  0
  7  8  1  0
  9  8  1  1
  9 10  1  0
 10 11  1  0
 11 12  1  0
 12 13  1  0
 13 14  2  0
 14 15  1  0
 15 16  2  0
 16 17  1  0
 17 18  2  0
 18 19  1  0
 19 20  2  0
 20 21  1  0
 21 22  2  0
 12 23  1  0
 23 24  2  0
  9 25  1  0
 25 26  2  0
 26 27  1  0
 27 28  1  0
 27 29  2  0
 29 30  1  0
 30 31  2  0
 31 32  1  0
 32 33  2  0
  5 34  2  0
 34  2  1  0
 32  7  1  0
 23  9  1  0
 31 25  1  0
 22 13  1  0
 22 17  1  0
M  END
>  <cnnaffinities>  (111) 
[5.9511]

>  <score>  (111) 
5.9511

>  <index>  (111) 
55

>  <Smiles>  (111) 
C(n1c(c(c(C(N2C([C@]3(C(C(N(c4c(nc(c5c(c(c(c(c45)[H])[H])[H])[H])[H])[H])C3=O)([H])[H])([H])[H])c3c(c(Cl)c(c(c3C2=O)[H])[H])[H])([H])[H])([H])[H])n1)[H])[H])([H])([H])[H]

>  <h>  (111) 
<NA>

>  <Training>  (111) 
True

>  <Success>  (111) 
True

>  <enamine_searched>  (111) 
False

>  <enamine_id>  (111) 
nan

$$$$

     RDKit          3D

 36 41  0  0  0  0  0  0  0  0999 V2000
   -6.6187   -3.3635  -26.0960 C   0  0  0  0  0  0  0  0  0  0  0  0
   -6.9049   -2.8071  -24.8337 O   0  0  0  0  0  0  0  0  0  0  0  0
   -7.9054   -3.5292  -24.1424 C   0  0  0  0  0  0  0  0  0  0  0  0
   -8.2712   -2.8419  -22.8239 C   0  0  1  0  0  0  0  0  0  0  0  0
   -7.0346   -2.5583  -21.9538 C   0  0  0  0  0  0  0  0  0  0  0  0
   -7.3982   -1.3681  -21.2103 N   0  0  0  0  0  0  0  0  0  0  0  0
   -6.6019   -0.8077  -20.1761 C   0  0  0  0  0  0  0  0  0  0  0  0
   -6.9186   -1.0445  -18.8653 C   0  0  0  0  0  0  0  0  0  0  0  0
   -6.2279   -0.5512  -17.8052 N   0  0  0  0  0  0  0  0  0  0  0  0
   -5.1902    0.2090  -18.0716 C   0  0  0  0  0  0  0  0  0  0  0  0
   -4.7536    0.5386  -19.3873 C   0  0  0  0  0  0  0  0  0  0  0  0
   -3.6299    1.3755  -19.6273 C   0  0  0  0  0  0  0  0  0  0  0  0
   -3.2443    1.6693  -20.9068 C   0  0  0  0  0  0  0  0  0  0  0  0
   -3.9480    1.1369  -22.0075 C   0  0  0  0  0  0  0  0  0  0  0  0
   -5.0283    0.3114  -21.8024 C   0  0  0  0  0  0  0  0  0  0  0  0
   -5.4662    0.0015  -20.4839 C   0  0  0  0  0  0  0  0  0  0  0  0
   -8.5445   -0.7441  -21.6473 C   0  0  0  0  0  0  0  0  0  0  0  0
   -9.0321    0.2458  -21.1399 O   0  0  0  0  0  0  0  0  0  0  0  0
   -9.0916   -1.5154  -22.8701 C   0  0  1  0  0  0  0  0  0  0  0  0
   -8.8156   -0.7135  -24.1676 C   0  0  0  0  0  0  0  0  0  0  0  0
   -9.6428    0.4726  -24.2749 N   0  0  0  0  0  0  0  0  0  0  0  0
   -9.0163    1.7086  -24.7174 C   0  0  0  0  0  0  0  0  0  0  0  0
   -8.2487    2.3987  -23.6264 C   0  0  0  0  0  0  0  0  0  0  0  0
   -6.9174    2.4473  -23.3953 C   0  0  0  0  0  0  0  0  0  0  0  0
   -6.7128    3.2103  -22.2659 N   0  0  0  0  0  0  0  0  0  0  0  0
   -7.8924    3.6327  -21.8172 C   0  0  0  0  0  0  0  0  0  0  0  0
   -8.8469    3.1409  -22.6228 N   0  0  0  0  0  0  0  0  0  0  0  0
  -10.9775    0.4611  -23.9981 C   0  0  0  0  0  0  0  0  0  0  0  0
  -11.7169    1.3983  -24.2602 O   0  0  0  0  0  0  0  0  0  0  0  0
  -11.4820   -0.7717  -23.3177 C   0  0  0  0  0  0  0  0  0  0  0  0
  -12.8628   -0.9130  -23.1983 C   0  0  0  0  0  0  0  0  0  0  0  0
  -13.3919   -1.8782  -22.3723 C   0  0  0  0  0  0  0  0  0  0  0  0
  -12.5090   -2.6809  -21.6506 C   0  0  0  0  0  0  0  0  0  0  0  0
  -13.1848   -3.7355  -20.4500 Cl  0  0  0  0  0  0  0  0  0  0  0  0
  -11.1366   -2.6080  -21.8237 C   0  0  0  0  0  0  0  0  0  0  0  0
  -10.5971   -1.6722  -22.7144 C   0  0  0  0  0  0  0  0  0  0  0  0
  1  2  1  0
  2  3  1  0
  4  3  1  6
  4  5  1  0
  5  6  1  0
  6  7  1  0
  7  8  2  0
  8  9  1  0
  9 10  2  0
 10 11  1  0
 11 12  2  0
 12 13  1  0
 13 14  2  0
 14 15  1  0
 15 16  2  0
  6 17  1  0
 17 18  2  0
 17 19  1  0
 19 20  1  6
 20 21  1  0
 21 22  1  0
 22 23  1  0
 23 24  2  0
 24 25  1  0
 25 26  2  0
 26 27  1  0
 21 28  1  0
 28 29  2  0
 28 30  1  0
 30 31  2  0
 31 32  1  0
 32 33  2  0
 33 34  1  0
 33 35  1  0
 35 36  2  0
 19  4  1  0
 27 23  1  0
 36 30  1  0
 16  7  1  0
 36 19  1  0
 16 11  1  0
M  CHG  1  25   1
M  END
>  <cnnaffinities>  (112) 
[6.50462, 6.56144, 6.54526, 6.50348, 6.50579, 6.58513]

>  <score>  (112) 
6.50462

>  <index>  (112) 
55

>  <Smiles>  (112) 
C(OC([C@]1(C(N(c2c(nc(c3c(c(c(c(c23)[H])[H])[H])[H])[H])[H])C(=O)[C@]21C(N(C(c1c([n+](c(n1[H])[H])[H])[H])([H])[H])C(=O)c1c(c(c(Cl)c(c21)[H])[H])[H])([H])[H])([H])[H])[H])([H])[H])([H])([H])[H]

>  <h>  (112) 
<NA>

>  <Training>  (112) 
True

>  <Success>  (112) 
True

>  <enamine_searched>  (112) 
False

>  <enamine_id>  (112) 
nan

$$$$

     RDKit          3D

 35 40  0  0  0  0  0  0  0  0999 V2000
   -7.5160   -3.5834  -23.7478 C   0  0  0  0  0  0  0  0  0  0  0  0
   -8.4088   -2.9152  -22.7009 C   0  0  1  0  0  0  0  0  0  0  0  0
   -7.7243   -2.7306  -21.3320 C   0  0  0  0  0  0  0  0  0  0  0  0
   -7.4152   -1.3197  -21.2617 N   0  0  0  0  0  0  0  0  0  0  0  0
   -6.6198   -0.7842  -20.2233 C   0  0  0  0  0  0  0  0  0  0  0  0
   -6.9154   -1.0666  -18.9127 C   0  0  0  0  0  0  0  0  0  0  0  0
   -6.2424   -0.5798  -17.8405 N   0  0  0  0  0  0  0  0  0  0  0  0
   -5.2097    0.1932  -18.0851 C   0  0  0  0  0  0  0  0  0  0  0  0
   -4.7560    0.5205  -19.3952 C   0  0  0  0  0  0  0  0  0  0  0  0
   -3.6178    1.3453  -19.6032 C   0  0  0  0  0  0  0  0  0  0  0  0
   -3.1823    1.6176  -20.8714 C   0  0  0  0  0  0  0  0  0  0  0  0
   -3.8505    1.0683  -21.9879 C   0  0  0  0  0  0  0  0  0  0  0  0
   -4.9534    0.2704  -21.8126 C   0  0  0  0  0  0  0  0  0  0  0  0
   -5.4561    0.0029  -20.5075 C   0  0  0  0  0  0  0  0  0  0  0  0
   -8.1734   -0.5551  -22.1254 C   0  0  0  0  0  0  0  0  0  0  0  0
   -8.2034    0.6545  -22.1315 O   0  0  0  0  0  0  0  0  0  0  0  0
   -8.9685   -1.5058  -23.0542 C   0  0  1  0  0  0  0  0  0  0  0  0
   -8.7503   -1.0836  -24.5265 C   0  0  0  0  0  0  0  0  0  0  0  0
   -9.3220    0.2276  -24.7982 N   0  0  0  0  0  0  0  0  0  0  0  0
   -8.5626    1.1875  -25.5788 C   0  0  0  0  0  0  0  0  0  0  0  0
   -8.5511    0.9093  -27.0696 C   0  0  0  0  0  0  0  0  0  0  0  0
   -8.0409   -0.2619  -27.4732 N   0  0  0  0  0  0  0  0  0  0  0  0
   -8.0369   -0.4653  -28.7896 C   0  0  0  0  0  0  0  0  0  0  0  0
   -8.5475    0.4430  -29.7030 C   0  0  0  0  0  0  0  0  0  0  0  0
   -9.0783    1.6053  -29.1692 C   0  0  0  0  0  0  0  0  0  0  0  0
   -9.0593    1.8529  -27.8600 N   0  0  0  0  0  0  0  0  0  0  0  0
  -10.5342    0.6240  -24.3153 C   0  0  0  0  0  0  0  0  0  0  0  0
  -11.0645    1.6756  -24.6554 O   0  0  0  0  0  0  0  0  0  0  0  0
  -11.1842   -0.3255  -23.3637 C   0  0  0  0  0  0  0  0  0  0  0  0
  -12.5527   -0.1689  -23.1497 C   0  0  0  0  0  0  0  0  0  0  0  0
  -13.2494   -1.0943  -22.4022 C   0  0  0  0  0  0  0  0  0  0  0  0
  -12.5282   -2.1225  -21.8112 C   0  0  0  0  0  0  0  0  0  0  0  0
  -13.1801   -2.9624  -20.9823 F   0  0  0  0  0  0  0  0  0  0  0  0
  -11.1697   -2.2862  -21.9715 C   0  0  0  0  0  0  0  0  0  0  0  0
  -10.4681   -1.3831  -22.7830 C   0  0  0  0  0  0  0  0  0  0  0  0
  2  1  1  6
  2  3  1  0
  3  4  1  0
  4  5  1  0
  5  6  2  0
  6  7  1  0
  7  8  2  0
  8  9  1  0
  9 10  2  0
 10 11  1  0
 11 12  2  0
 12 13  1  0
 13 14  2  0
  4 15  1  0
 15 16  2  0
 15 17  1  0
 17 18  1  6
 18 19  1  0
 19 20  1  0
 20 21  1  0
 21 22  2  0
 22 23  1  0
 23 24  2  0
 24 25  1  0
 25 26  2  0
 19 27  1  0
 27 28  2  0
 27 29  1  0
 29 30  2  0
 30 31  1  0
 31 32  2  0
 32 33  1  0
 32 34  1  0
 34 35  2  0
 17  2  1  0
 26 21  1  0
 35 29  1  0
 14  5  1  0
 35 17  1  0
 14  9  1  0
M  END
>  <cnnaffinities>  (113) 
[6.16427, 6.53098, 6.51138]

>  <score>  (113) 
6.16427

>  <index>  (113) 
56

>  <Smiles>  (113) 
C([C@]1(C(N(c2c(nc(c3c(c(c(c(c23)[H])[H])[H])[H])[H])[H])C(=O)[C@]21C(N(C(c1nc(c(c(n1)[H])[H])[H])([H])[H])C(=O)c1c(c(c(F)c(c21)[H])[H])[H])([H])[H])([H])[H])[H])([H])([H])[H]

>  <h>  (113) 
<NA>

>  <Training>  (113) 
True

>  <Success>  (113) 
True

>  <enamine_searched>  (113) 
False

>  <enamine_id>  (113) 
nan

$$$$

     RDKit          3D

 34 38  0  0  0  0  0  0  0  0999 V2000
  -14.6072   -1.0087  -23.6260 C   0  0  0  0  0  0  0  0  0  0  0  0
  -13.7740   -2.1367  -23.2519 N   0  0  0  0  0  0  0  0  0  0  0  0
  -13.4959   -2.4106  -21.9485 C   0  0  0  0  0  0  0  0  0  0  0  0
  -14.0131   -1.8281  -21.0166 O   0  0  0  0  0  0  0  0  0  0  0  0
  -12.5628   -3.6012  -21.7230 C   0  0  0  0  0  0  0  0  0  0  0  0
  -11.2249   -3.5561  -22.2868 N   0  0  0  0  0  0  0  0  0  0  0  0
  -10.0687   -3.2318  -21.4500 C   0  0  0  0  0  0  0  0  0  0  0  0
   -8.8272   -2.8880  -22.3119 C   0  0  2  0  0  0  0  0  0  0  0  0
   -7.6135   -2.6943  -21.3927 C   0  0  0  0  0  0  0  0  0  0  0  0
   -6.9272   -3.5682  -20.8966 O   0  0  0  0  0  0  0  0  0  0  0  0
   -7.3835   -1.3447  -21.2389 N   0  0  0  0  0  0  0  0  0  0  0  0
   -6.5866   -0.8499  -20.1800 C   0  0  0  0  0  0  0  0  0  0  0  0
   -6.9039   -1.1066  -18.8695 C   0  0  0  0  0  0  0  0  0  0  0  0
   -6.2433   -0.5791  -17.8064 N   0  0  0  0  0  0  0  0  0  0  0  0
   -5.2199    0.2021  -18.0665 C   0  0  0  0  0  0  0  0  0  0  0  0
   -4.7645    0.5172  -19.3798 C   0  0  0  0  0  0  0  0  0  0  0  0
   -3.6348    1.3431  -19.6143 C   0  0  0  0  0  0  0  0  0  0  0  0
   -3.2288    1.6116  -20.8931 C   0  0  0  0  0  0  0  0  0  0  0  0
   -3.9257    1.0713  -21.9979 C   0  0  0  0  0  0  0  0  0  0  0  0
   -5.0224    0.2710  -21.7973 C   0  0  0  0  0  0  0  0  0  0  0  0
   -5.4671   -0.0182  -20.4792 C   0  0  0  0  0  0  0  0  0  0  0  0
   -8.3727   -0.5228  -21.9181 C   0  0  0  0  0  0  0  0  0  0  0  0
   -8.9766   -1.4508  -22.9988 C   0  0  0  0  0  0  0  0  0  0  0  0
  -10.4178   -1.0212  -23.3041 C   0  0  0  0  0  0  0  0  0  0  0  0
   -8.1965   -1.4005  -24.3216 C   0  0  0  0  0  0  0  0  0  0  0  0
   -8.6082   -4.0455  -23.2579 C   0  0  0  0  0  0  0  0  0  0  0  0
   -7.3300   -4.4490  -23.6616 C   0  0  0  0  0  0  0  0  0  0  0  0
   -7.1969   -5.4521  -24.6063 C   0  0  0  0  0  0  0  0  0  0  0  0
   -5.6043   -5.8825  -25.1647 Cl  0  0  0  0  0  0  0  0  0  0  0  0
   -8.3055   -6.1150  -25.1366 C   0  0  0  0  0  0  0  0  0  0  0  0
   -9.5698   -5.6957  -24.7609 C   0  0  0  0  0  0  0  0  0  0  0  0
   -9.7155   -4.6596  -23.8420 C   0  0  0  0  0  0  0  0  0  0  0  0
  -11.0829   -4.2049  -23.4830 C   0  0  0  0  0  0  0  0  0  0  0  0
  -12.0492   -4.4092  -24.2182 O   0  0  0  0  0  0  0  0  0  0  0  0
  1  2  1  0
  2  3  1  0
  3  4  2  0
  3  5  1  0
  5  6  1  0
  6  7  1  0
  8  7  1  1
  8  9  1  0
  9 10  2  0
  9 11  1  0
 11 12  1  0
 12 13  2  0
 13 14  1  0
 14 15  2  0
 15 16  1  0
 16 17  2  0
 17 18  1  0
 18 19  2  0
 19 20  1  0
 20 21  2  0
 11 22  1  0
 22 23  1  0
 23 24  1  0
 23 25  1  0
  8 26  1  0
 26 27  2  0
 27 28  1  0
 28 29  1  0
 28 30  2  0
 30 31  1  0
 31 32  2  0
 32 33  1  0
 33 34  2  0
 33  6  1  0
 23  8  1  0
 32 26  1  0
 21 12  1  0
 21 16  1  0
M  END
>  <cnnaffinities>  (114) 
[6.37428, 6.16141, 6.03675, 6.0468]

>  <score>  (114) 
6.37428

>  <index>  (114) 
57

>  <Smiles>  (114) 
C(N(C(=O)C(N1C([C@@]2(C(=O)N(c3c(nc(c4c(c(c(c(c34)[H])[H])[H])[H])[H])[H])C(C2(C([H])([H])[H])C([H])([H])[H])([H])[H])c2c(c(Cl)c(c(c2C1=O)[H])[H])[H])([H])[H])([H])[H])[H])([H])([H])[H]

>  <h>  (114) 
<NA>

>  <Training>  (114) 
True

>  <Success>  (114) 
True

>  <enamine_searched>  (114) 
False

>  <enamine_id>  (114) 
nan

$$$$

     RDKit          3D

 26 29  0  0  0  0  0  0  0  0999 V2000
  -12.8254   -2.1536  -22.6989 C   0  0  0  0  0  0  0  0  0  0  0  0
  -11.3998   -2.4008  -22.8872 N   0  0  0  0  0  0  0  0  0  0  0  0
  -10.4129   -1.7136  -22.0850 C   0  0  0  0  0  0  0  0  0  0  0  0
   -9.2085   -1.3036  -22.9390 C   0  0  1  0  0  0  0  0  0  0  0  0
   -8.1747   -0.6017  -22.0580 C   0  0  0  0  0  0  0  0  0  0  0  0
   -8.0471    0.6067  -22.0662 O   0  0  0  0  0  0  0  0  0  0  0  0
   -7.4073   -1.3707  -21.2068 N   0  0  0  0  0  0  0  0  0  0  0  0
   -6.5903   -0.8116  -20.1847 C   0  0  0  0  0  0  0  0  0  0  0  0
   -6.8812   -1.0548  -18.8631 C   0  0  0  0  0  0  0  0  0  0  0  0
   -6.1996   -0.5444  -17.8077 N   0  0  0  0  0  0  0  0  0  0  0  0
   -5.1632    0.2219  -18.0662 C   0  0  0  0  0  0  0  0  0  0  0  0
   -4.7265    0.5291  -19.3854 C   0  0  0  0  0  0  0  0  0  0  0  0
   -3.5922    1.3532  -19.6242 C   0  0  0  0  0  0  0  0  0  0  0  0
   -3.1818    1.6142  -20.9066 C   0  0  0  0  0  0  0  0  0  0  0  0
   -3.8824    1.0571  -21.9985 C   0  0  0  0  0  0  0  0  0  0  0  0
   -4.9801    0.2580  -21.7915 C   0  0  0  0  0  0  0  0  0  0  0  0
   -5.4462   -0.0097  -20.4777 C   0  0  0  0  0  0  0  0  0  0  0  0
   -8.6929   -2.4579  -23.7624 C   0  0  0  0  0  0  0  0  0  0  0  0
   -7.3838   -2.4641  -24.2505 C   0  0  0  0  0  0  0  0  0  0  0  0
   -6.9370   -3.5292  -25.0115 C   0  0  0  0  0  0  0  0  0  0  0  0
   -5.2975   -3.5319  -25.5855 Cl  0  0  0  0  0  0  0  0  0  0  0  0
   -7.7786   -4.5906  -25.3287 C   0  0  0  0  0  0  0  0  0  0  0  0
   -9.0908   -4.5548  -24.8809 C   0  0  0  0  0  0  0  0  0  0  0  0
   -9.5641   -3.4935  -24.1015 C   0  0  0  0  0  0  0  0  0  0  0  0
  -11.0221   -3.4382  -23.7080 C   0  0  0  0  0  0  0  0  0  0  0  0
  -11.8390   -4.2379  -24.1333 O   0  0  0  0  0  0  0  0  0  0  0  0
  1  2  1  0
  2  3  1  0
  3  4  1  0
  4  5  1  1
  5  6  2  0
  5  7  1  0
  7  8  1  0
  8  9  2  0
  9 10  1  0
 10 11  2  0
 11 12  1  0
 12 13  2  0
 13 14  1  0
 14 15  2  0
 15 16  1  0
 16 17  2  0
  4 18  1  0
 18 19  2  0
 19 20  1  0
 20 21  1  0
 20 22  2  0
 22 23  1  0
 23 24  2  0
 24 25  1  0
 25 26  2  0
 25  2  1  0
 17  8  1  0
 24 18  1  0
 17 12  1  0
M  END
>  <cnnaffinities>  (115) 
[5.50472]

>  <score>  (115) 
5.50472

>  <index>  (115) 
58

>  <Smiles>  (115) 
C(N1C([C@@](C(=O)N(c2c(nc(c3c(c(c(c(c23)[H])[H])[H])[H])[H])[H])[H])(c2c(c(Cl)c(c(c2C1=O)[H])[H])[H])[H])([H])[H])([H])([H])[H]

>  <h>  (115) 
<NA>

>  <Training>  (115) 
True

>  <Success>  (115) 
True

>  <enamine_searched>  (115) 
False

>  <enamine_id>  (115) 
nan

$$$$

     RDKit          3D

 38 43  0  0  0  0  0  0  0  0999 V2000
   -7.0158    3.0862  -22.8513 C   0  0  0  0  0  0  0  0  0  0  0  0
   -8.1187    2.2880  -23.3428 N   0  0  0  0  0  0  0  0  0  0  0  0
   -8.0670    1.6334  -24.5291 C   0  0  0  0  0  0  0  0  0  0  0  0
   -7.0240    1.3752  -25.1046 O   0  0  0  0  0  0  0  0  0  0  0  0
   -9.4434    1.1885  -25.0378 C   0  0  0  0  0  0  0  0  0  0  0  0
  -10.0242    0.1908  -24.1638 N   0  0  0  0  0  0  0  0  0  0  0  0
   -9.3600   -1.0973  -24.0551 C   0  0  0  0  0  0  0  0  0  0  0  0
   -9.5830   -1.7241  -22.6578 C   0  0  2  0  0  0  0  0  0  0  0  0
   -8.9943   -0.7764  -21.5712 C   0  0  0  0  0  0  0  0  0  0  0  0
   -9.4994    0.2205  -21.0996 O   0  0  0  0  0  0  0  0  0  0  0  0
   -7.7542   -1.2572  -21.2179 N   0  0  0  0  0  0  0  0  0  0  0  0
   -6.9675   -0.7007  -20.1841 C   0  0  0  0  0  0  0  0  0  0  0  0
   -7.2534   -0.9970  -18.8742 C   0  0  0  0  0  0  0  0  0  0  0  0
   -6.4970   -0.6079  -17.8177 N   0  0  0  0  0  0  0  0  0  0  0  0
   -5.4184    0.0876  -18.0878 C   0  0  0  0  0  0  0  0  0  0  0  0
   -4.9995    0.4563  -19.3974 C   0  0  0  0  0  0  0  0  0  0  0  0
   -3.8072    1.1936  -19.6257 C   0  0  0  0  0  0  0  0  0  0  0  0
   -3.4204    1.5070  -20.8982 C   0  0  0  0  0  0  0  0  0  0  0  0
   -4.2006    1.1001  -22.0052 C   0  0  0  0  0  0  0  0  0  0  0  0
   -5.3598    0.3873  -21.8078 C   0  0  0  0  0  0  0  0  0  0  0  0
   -5.7912    0.0471  -20.4963 C   0  0  0  0  0  0  0  0  0  0  0  0
   -7.3692   -2.4616  -21.9157 C   0  0  0  0  0  0  0  0  0  0  0  0
   -8.7174   -2.9956  -22.4189 C   0  0  2  0  0  0  0  0  0  0  0  0
   -8.5556   -4.0761  -23.5066 C   0  0  0  0  0  0  0  0  0  0  0  0
   -7.6387   -3.7571  -24.6586 C   0  0  0  0  0  0  0  0  0  0  0  0
   -8.0324   -3.4284  -25.8828 N   0  0  0  0  0  0  0  0  0  0  0  0
   -6.9093   -3.1989  -26.5631 N   0  0  0  0  0  0  0  0  0  0  0  0
   -5.8837   -3.4041  -25.7838 N   0  0  0  0  0  0  0  0  0  0  0  0
   -6.3130   -3.7686  -24.5764 N   0  0  0  0  0  0  0  0  0  0  0  0
  -11.0887   -1.8456  -22.4893 C   0  0  0  0  0  0  0  0  0  0  0  0
  -11.7145   -2.8749  -21.7705 C   0  0  0  0  0  0  0  0  0  0  0  0
  -13.0773   -2.8004  -21.5134 C   0  0  0  0  0  0  0  0  0  0  0  0
  -13.8640   -3.9869  -20.5158 Cl  0  0  0  0  0  0  0  0  0  0  0  0
  -13.8644   -1.7457  -21.9814 C   0  0  0  0  0  0  0  0  0  0  0  0
  -13.2534   -0.7432  -22.7020 C   0  0  0  0  0  0  0  0  0  0  0  0
  -11.8901   -0.7948  -22.9697 C   0  0  0  0  0  0  0  0  0  0  0  0
  -11.3293    0.3284  -23.7902 C   0  0  0  0  0  0  0  0  0  0  0  0
  -12.0050    1.3087  -24.0821 O   0  0  0  0  0  0  0  0  0  0  0  0
  1  2  1  0
  2  3  1  0
  3  4  2  0
  3  5  1  0
  5  6  1  0
  6  7  1  0
  8  7  1  6
  8  9  1  0
  9 10  2  0
  9 11  1  0
 11 12  1  0
 12 13  2  0
 13 14  1  0
 14 15  2  0
 15 16  1  0
 16 17  2  0
 17 18  1  0
 18 19  2  0
 19 20  1  0
 20 21  2  0
 11 22  1  0
 22 23  1  0
 23 24  1  6
 24 25  1  0
 25 26  1  0
 26 27  2  0
 27 28  1  0
 28 29  1  0
  8 30  1  0
 30 31  2  0
 31 32  1  0
 32 33  1  0
 32 34  2  0
 34 35  1  0
 35 36  2  0
 36 37  1  0
 37 38  2  0
 37  6  1  0
 23  8  1  0
 29 25  2  0
 36 30  1  0
 21 12  1  0
 21 16  1  0
M  CHG  1  28  -1
M  END
>  <cnnaffinities>  (116) 
[6.91249, 6.89277, 6.83073, 6.8152]

>  <score>  (116) 
6.91249

>  <index>  (116) 
59

>  <Smiles>  (116) 
C(N(C(=O)C(N1C([C@@]2(C(=O)N(c3c(nc(c4c(c(c(c(c34)[H])[H])[H])[H])[H])[H])C([C@@]2(C(c2nn[n-]n2)([H])[H])[H])([H])[H])c2c(c(Cl)c(c(c2C1=O)[H])[H])[H])([H])[H])([H])[H])[H])([H])([H])[H]

>  <h>  (116) 
<NA>

>  <Training>  (116) 
True

>  <Success>  (116) 
True

>  <enamine_searched>  (116) 
False

>  <enamine_id>  (116) 
nan

$$$$

     RDKit          3D

 24 26  0  0  0  0  0  0  0  0999 V2000
    7.9520    1.4396   20.2225 O   0  0  0  0  0  0  0  0  0  0  0  0
    7.7439    0.7952   21.2347 C   0  0  0  0  0  0  0  0  0  0  0  0
    6.8463   -0.4476   21.1629 C   0  0  0  0  0  0  0  0  0  0  0  0
    5.8595   -0.2673   20.0447 C   0  0  0  0  0  0  0  0  0  0  0  0
    6.1134   -0.7976   18.8071 C   0  0  0  0  0  0  0  0  0  0  0  0
    5.3401   -0.6229   17.7037 N   0  0  0  0  0  0  0  0  0  0  0  0
    4.2685    0.1193   17.8497 C   0  0  0  0  0  0  0  0  0  0  0  0
    3.8998    0.7652   19.0619 C   0  0  0  0  0  0  0  0  0  0  0  0
    2.7401    1.5757   19.1608 C   0  0  0  0  0  0  0  0  0  0  0  0
    2.4070    2.1791   20.3424 C   0  0  0  0  0  0  0  0  0  0  0  0
    3.2566    2.0477   21.4638 C   0  0  0  0  0  0  0  0  0  0  0  0
    4.4048    1.2978   21.3866 C   0  0  0  0  0  0  0  0  0  0  0  0
    4.7368    0.5953   20.1923 C   0  0  0  0  0  0  0  0  0  0  0  0
    8.2978    1.1399   22.4549 N   0  0  0  0  0  0  0  0  0  0  0  0
    8.8216    0.1499   23.3908 C   0  0  0  0  0  0  0  0  0  0  0  0
   10.0640   -0.6080   22.8773 C   0  0  0  0  0  0  0  0  0  0  0  0
   10.9038    0.1799   21.8570 C   0  0  0  0  0  0  0  0  0  0  0  0
   11.4598    1.8473   22.3777 S   0  0  0  0  0  0  0  0  0  0  0  0
   10.0469    2.8775   21.8729 C   0  0  0  0  0  0  0  0  0  0  0  0
    8.7824    2.4996   22.6383 C   0  0  1  0  0  0  0  0  0  0  0  0
    7.6595    3.5208   22.4897 C   0  0  0  0  0  0  0  0  0  0  0  0
    6.5784    3.1207   23.1813 F   0  0  0  0  0  0  0  0  0  0  0  0
    7.2795    3.7569   21.2360 F   0  0  0  0  0  0  0  0  0  0  0  0
    8.0642    4.6961   23.0142 F   0  0  0  0  0  0  0  0  0  0  0  0
  1  2  2  0
  2  3  1  0
  3  4  1  0
  4  5  2  0
  5  6  1  0
  6  7  2  0
  7  8  1  0
  8  9  2  0
  9 10  1  0
 10 11  2  0
 11 12  1  0
 12 13  2  0
  2 14  1  0
 14 15  1  0
 15 16  1  0
 16 17  1  0
 17 18  1  0
 18 19  1  0
 19 20  1  0
 20 21  1  6
 21 22  1  0
 21 23  1  0
 21 24  1  0
 13  4  1  0
 20 14  1  0
 13  8  1  0
M  END
>  <cnnaffinities>  (117) 
[5.27031, 5.27193, 5.27319, 5.47113, 5.46942, 5.47041, 5.46944, 5.27443, 5.33706, 5.31956, 5.34008, 5.29273, 5.29261, 5.29251, 5.40288, 5.33064, 5.331, 5.33098, 5.33099, 5.33098, 5.31831, 5.3183, 5.3183, 5.31829]

>  <score>  (117) 
5.27031

>  <index>  (117) 
56

>  <Smiles>  (117) 
O=C(C(c1c(nc(c2c(c(c(c(c12)[H])[H])[H])[H])[H])[H])([H])[H])N1C(C(C(SC([C@]1(C(F)(F)F)[H])([H])[H])([H])[H])([H])[H])([H])[H]

>  <h>  (117) 
<NA>

>  <Training>  (117) 
True

>  <Success>  (117) 
True

>  <enamine_searched>  (117) 
False

>  <enamine_id>  (117) 
nan

$$$$

     RDKit          3D

 40 45  0  0  0  0  0  0  0  0999 V2000
    6.8389    4.0983   28.0400 C   0  0  0  0  0  0  0  0  0  0  0  0
    7.0625    4.0981   26.6089 N   0  0  0  0  0  0  0  0  0  0  0  0
    6.4610    3.1244   25.8711 C   0  0  0  0  0  0  0  0  0  0  0  0
    5.7517    2.2647   26.3655 O   0  0  0  0  0  0  0  0  0  0  0  0
    6.7396    3.2084   24.3690 C   0  0  0  0  0  0  0  0  0  0  0  0
    7.8636    2.3843   23.9675 N   0  0  0  0  0  0  0  0  0  0  0  0
    7.7149    0.9364   23.9450 C   0  0  0  0  0  0  0  0  0  0  0  0
    8.3738    0.3283   22.6747 C   0  0  2  0  0  0  0  0  0  0  0  0
    7.5928    0.7427   21.4094 C   0  0  0  0  0  0  0  0  0  0  0  0
    7.6205    1.8077   20.8265 O   0  0  0  0  0  0  0  0  0  0  0  0
    6.8243   -0.3255   21.0028 N   0  0  0  0  0  0  0  0  0  0  0  0
    5.8756   -0.1794   19.9725 C   0  0  0  0  0  0  0  0  0  0  0  0
    6.0767   -0.7981   18.7662 C   0  0  0  0  0  0  0  0  0  0  0  0
    5.2733   -0.6505   17.6865 N   0  0  0  0  0  0  0  0  0  0  0  0
    4.2144    0.1115   17.8365 C   0  0  0  0  0  0  0  0  0  0  0  0
    3.8656    0.7719   19.0489 C   0  0  0  0  0  0  0  0  0  0  0  0
    2.6926    1.5614   19.1594 C   0  0  0  0  0  0  0  0  0  0  0  0
    2.3543    2.1434   20.3488 C   0  0  0  0  0  0  0  0  0  0  0  0
    3.1912    1.9968   21.4768 C   0  0  0  0  0  0  0  0  0  0  0  0
    4.3472    1.2651   21.3890 C   0  0  0  0  0  0  0  0  0  0  0  0
    4.7119    0.6267   20.1656 C   0  0  0  0  0  0  0  0  0  0  0  0
    6.9664   -1.5117   21.8093 C   0  0  0  0  0  0  0  0  0  0  0  0
    8.2324   -1.2166   22.6188 C   0  0  2  0  0  0  0  0  0  0  0  0
    8.2598   -1.9759   23.9463 C   0  0  0  0  0  0  0  0  0  0  0  0
    8.2966   -3.4026   23.7359 N   0  0  0  0  0  0  0  0  0  0  0  0
    7.1734   -4.1782   23.6901 C   0  0  0  0  0  0  0  0  0  0  0  0
    5.8854   -3.8850   24.0479 C   0  0  0  0  0  0  0  0  0  0  0  0
    4.9741   -4.9094   23.9294 N   0  0  0  0  0  0  0  0  0  0  0  0
    5.5398   -5.9891   23.4958 C   0  0  0  0  0  0  0  0  0  0  0  0
    4.8397   -7.2873   23.2657 C   0  0  0  0  0  0  0  0  0  0  0  0
    7.2550   -5.8426   23.1687 S   0  0  0  0  0  0  0  0  0  0  0  0
    9.7969    0.8485   22.6108 C   0  0  0  0  0  0  0  0  0  0  0  0
   10.8184    0.1089   22.0114 C   0  0  0  0  0  0  0  0  0  0  0  0
   12.1203    0.5591   22.0749 C   0  0  0  0  0  0  0  0  0  0  0  0
   13.3669   -0.4875   21.4489 Cl  0  0  0  0  0  0  0  0  0  0  0  0
   12.4471    1.7992   22.6183 C   0  0  0  0  0  0  0  0  0  0  0  0
   11.4268    2.5871   23.1081 C   0  0  0  0  0  0  0  0  0  0  0  0
   10.1193    2.1118   23.1302 C   0  0  0  0  0  0  0  0  0  0  0  0
    9.0569    2.9953   23.7023 C   0  0  0  0  0  0  0  0  0  0  0  0
    9.2369    4.1876   23.9097 O   0  0  0  0  0  0  0  0  0  0  0  0
  1  2  1  0
  2  3  1  0
  3  4  2  0
  3  5  1  0
  5  6  1  0
  6  7  1  0
  8  7  1  1
  8  9  1  0
  9 10  2  0
  9 11  1  0
 11 12  1  0
 12 13  2  0
 13 14  1  0
 14 15  2  0
 15 16  1  0
 16 17  2  0
 17 18  1  0
 18 19  2  0
 19 20  1  0
 20 21  2  0
 11 22  1  0
 22 23  1  0
 23 24  1  1
 24 25  1  0
 25 26  1  0
 26 27  2  0
 27 28  1  0
 28 29  2  0
 29 30  1  0
 29 31  1  0
  8 32  1  0
 32 33  2  0
 33 34  1  0
 34 35  1  0
 34 36  2  0
 36 37  1  0
 37 38  2  0
 38 39  1  0
 39 40  2  0
 39  6  1  0
 23  8  1  0
 31 26  1  0
 38 32  1  0
 21 12  1  0
 21 16  1  0
M  END
>  <cnnaffinities>  (118) 
[6.81557, 6.73085, 6.78447]

>  <score>  (118) 
6.81557

>  <index>  (118) 
57

>  <Smiles>  (118) 
C(N(C(=O)C(N1C([C@@]2(C(=O)N(c3c(nc(c4c(c(c(c(c34)[H])[H])[H])[H])[H])[H])C([C@@]2(C(N(c2c(nc(C([H])([H])[H])s2)[H])[H])([H])[H])[H])([H])[H])c2c(c(Cl)c(c(c2C1=O)[H])[H])[H])([H])[H])([H])[H])[H])([H])([H])[H]

>  <h>  (118) 
<NA>

>  <Training>  (118) 
True

>  <Success>  (118) 
True

>  <enamine_searched>  (118) 
False

>  <enamine_id>  (118) 
nan

$$$$

     RDKit          3D

 36 41  0  0  0  0  0  0  0  0999 V2000
  -10.8375    4.6347  -25.3267 C   0  0  0  0  0  0  0  0  0  0  0  0
   -9.3414    4.4176  -25.5551 C   0  0  0  0  0  0  0  0  0  0  0  0
   -8.6730    3.7932  -24.4218 N   0  0  0  0  0  0  0  0  0  0  0  0
   -8.0938    4.5784  -23.5023 N   0  0  0  0  0  0  0  0  0  0  0  0
   -7.6102    3.7516  -22.5838 C   0  0  0  0  0  0  0  0  0  0  0  0
   -7.8886    2.4128  -22.9159 C   0  0  0  0  0  0  0  0  0  0  0  0
   -8.5956    2.4732  -24.0936 C   0  0  0  0  0  0  0  0  0  0  0  0
   -9.1128    1.3362  -24.9297 C   0  0  0  0  0  0  0  0  0  0  0  0
   -9.6567    0.2523  -24.1366 N   0  0  0  0  0  0  0  0  0  0  0  0
   -8.9337   -1.0021  -24.0316 C   0  0  0  0  0  0  0  0  0  0  0  0
   -9.2189   -1.7370  -22.6927 C   0  0  2  0  0  0  0  0  0  0  0  0
   -8.6541   -0.9185  -21.4975 C   0  0  0  0  0  0  0  0  0  0  0  0
   -9.1910    0.0059  -20.9213 O   0  0  0  0  0  0  0  0  0  0  0  0
   -7.3999   -1.4053  -21.1881 N   0  0  0  0  0  0  0  0  0  0  0  0
   -6.6058   -0.8163  -20.1665 C   0  0  0  0  0  0  0  0  0  0  0  0
   -6.9098   -1.0454  -18.8471 C   0  0  0  0  0  0  0  0  0  0  0  0
   -6.2047   -0.5488  -17.8002 N   0  0  0  0  0  0  0  0  0  0  0  0
   -5.1680    0.2076  -18.0749 C   0  0  0  0  0  0  0  0  0  0  0  0
   -4.7349    0.5272  -19.3937 C   0  0  0  0  0  0  0  0  0  0  0  0
   -3.6114    1.3632  -19.6360 C   0  0  0  0  0  0  0  0  0  0  0  0
   -3.2298    1.6625  -20.9156 C   0  0  0  0  0  0  0  0  0  0  0  0
   -3.9529    1.1360  -22.0095 C   0  0  0  0  0  0  0  0  0  0  0  0
   -5.0445    0.3232  -21.7994 C   0  0  0  0  0  0  0  0  0  0  0  0
   -5.4676   -0.0018  -20.4823 C   0  0  0  0  0  0  0  0  0  0  0  0
   -7.0258   -2.5854  -21.9479 C   0  0  0  0  0  0  0  0  0  0  0  0
   -8.3629   -3.0391  -22.5806 C   0  0  2  0  0  0  0  0  0  0  0  0
   -8.1688   -3.8558  -23.8635 C   0  0  0  0  0  0  0  0  0  0  0  0
  -10.7331   -1.8725  -22.5769 C   0  0  0  0  0  0  0  0  0  0  0  0
  -11.3602   -2.9358  -21.9064 C   0  0  0  0  0  0  0  0  0  0  0  0
  -12.7298   -2.8822  -21.7325 C   0  0  0  0  0  0  0  0  0  0  0  0
  -13.3981   -3.7891  -21.0121 F   0  0  0  0  0  0  0  0  0  0  0  0
  -13.5147   -1.8572  -22.2335 C   0  0  0  0  0  0  0  0  0  0  0  0
  -12.9190   -0.7983  -22.8725 C   0  0  0  0  0  0  0  0  0  0  0  0
  -11.5338   -0.8095  -23.0373 C   0  0  0  0  0  0  0  0  0  0  0  0
  -10.9476    0.3753  -23.7248 C   0  0  0  0  0  0  0  0  0  0  0  0
  -11.6065    1.3907  -23.9287 O   0  0  0  0  0  0  0  0  0  0  0  0
  1  2  1  0
  2  3  1  0
  3  4  1  0
  4  5  2  0
  5  6  1  0
  6  7  2  0
  7  8  1  0
  8  9  1  0
  9 10  1  0
 11 10  1  6
 11 12  1  0
 12 13  2  0
 12 14  1  0
 14 15  1  0
 15 16  2  0
 16 17  1  0
 17 18  2  0
 18 19  1  0
 19 20  2  0
 20 21  1  0
 21 22  2  0
 22 23  1  0
 23 24  2  0
 14 25  1  0
 25 26  1  0
 26 27  1  6
 11 28  1  0
 28 29  2  0
 29 30  1  0
 30 31  1  0
 30 32  2  0
 32 33  1  0
 33 34  2  0
 34 35  1  0
 35 36  2  0
  7  3  1  0
 35  9  1  0
 26 11  1  0
 34 28  1  0
 24 15  1  0
 24 19  1  0
M  END
>  <cnnaffinities>  (119) 
[7.14207, 6.86118, 6.72483]

>  <score>  (119) 
7.14207

>  <index>  (119) 
7

>  <Smiles>  (119) 
C(C(n1nc(c(c1C(N1C([C@@]2(C(=O)N(c3c(nc(c4c(c(c(c(c34)[H])[H])[H])[H])[H])[H])C([C@@]2(C([H])([H])[H])[H])([H])[H])c2c(c(F)c(c(c2C1=O)[H])[H])[H])([H])[H])([H])[H])[H])[H])([H])[H])([H])([H])[H]

>  <h>  (119) 
<NA>

>  <Training>  (119) 
True

>  <Success>  (119) 
True

>  <enamine_searched>  (119) 
False

>  <enamine_id>  (119) 
nan

$$$$

     RDKit          3D

 35 40  0  0  0  0  0  0  0  0999 V2000
    7.1395   -1.2619   24.2054 C   0  0  0  0  0  0  0  0  0  0  0  0
    7.9396   -1.1650   22.8969 C   0  0  1  0  0  0  0  0  0  0  0  0
    7.0765   -1.5653   21.6791 C   0  0  0  0  0  0  0  0  0  0  0  0
    6.7983   -0.3089   21.0263 N   0  0  0  0  0  0  0  0  0  0  0  0
    5.8685   -0.1596   19.9760 C   0  0  0  0  0  0  0  0  0  0  0  0
    6.0693   -0.7865   18.7746 C   0  0  0  0  0  0  0  0  0  0  0  0
    5.2646   -0.6430   17.6956 N   0  0  0  0  0  0  0  0  0  0  0  0
    4.2056    0.1200   17.8360 C   0  0  0  0  0  0  0  0  0  0  0  0
    3.8525    0.7823   19.0469 C   0  0  0  0  0  0  0  0  0  0  0  0
    2.6741    1.5645   19.1643 C   0  0  0  0  0  0  0  0  0  0  0  0
    2.3304    2.1282   20.3611 C   0  0  0  0  0  0  0  0  0  0  0  0
    3.1645    1.9725   21.4896 C   0  0  0  0  0  0  0  0  0  0  0  0
    4.3391    1.2694   21.3881 C   0  0  0  0  0  0  0  0  0  0  0  0
    4.7045    0.6423   20.1632 C   0  0  0  0  0  0  0  0  0  0  0  0
    7.6809    0.7024   21.3369 C   0  0  0  0  0  0  0  0  0  0  0  0
    7.7706    1.7401   20.7229 O   0  0  0  0  0  0  0  0  0  0  0  0
    8.5238    0.2522   22.5487 C   0  0  1  0  0  0  0  0  0  0  0  0
    8.3827    1.2639   23.7144 C   0  0  0  0  0  0  0  0  0  0  0  0
    9.0042    2.5425   23.4113 N   0  0  0  0  0  0  0  0  0  0  0  0
    8.3822    3.7836   23.8608 C   0  0  0  0  0  0  0  0  0  0  0  0
    7.5689    4.4479   22.7769 C   0  0  0  0  0  0  0  0  0  0  0  0
    8.0658    5.5473   22.0816 C   0  0  0  0  0  0  0  0  0  0  0  0
    7.2270    6.1511   21.1613 C   0  0  0  0  0  0  0  0  0  0  0  0
    6.0006    5.6891   20.9215 N   0  0  0  0  0  0  0  0  0  0  0  0
    5.6412    4.6219   21.6231 C   0  0  0  0  0  0  0  0  0  0  0  0
    6.3432    3.9578   22.5416 N   0  0  0  0  0  0  0  0  0  0  0  0
   10.2660    2.6225   22.8853 C   0  0  0  0  0  0  0  0  0  0  0  0
   10.8967    3.6732   22.8491 O   0  0  0  0  0  0  0  0  0  0  0  0
   10.8333    1.3317   22.3761 C   0  0  0  0  0  0  0  0  0  0  0  0
   12.2106    1.2512   22.1508 C   0  0  0  0  0  0  0  0  0  0  0  0
   12.7866    0.0770   21.7041 C   0  0  0  0  0  0  0  0  0  0  0  0
   11.9327   -0.9742   21.3980 C   0  0  0  0  0  0  0  0  0  0  0  0
   12.4624   -2.1196   20.9391 F   0  0  0  0  0  0  0  0  0  0  0  0
   10.5625   -0.9041   21.5525 C   0  0  0  0  0  0  0  0  0  0  0  0
    9.9994    0.2247   22.1549 C   0  0  0  0  0  0  0  0  0  0  0  0
  2  1  1  1
  2  3  1  0
  3  4  1  0
  4  5  1  0
  5  6  2  0
  6  7  1  0
  7  8  2  0
  8  9  1  0
  9 10  2  0
 10 11  1  0
 11 12  2  0
 12 13  1  0
 13 14  2  0
  4 15  1  0
 15 16  2  0
 15 17  1  0
 17 18  1  1
 18 19  1  0
 19 20  1  0
 20 21  1  0
 21 22  2  0
 22 23  1  0
 23 24  2  0
 24 25  1  0
 25 26  2  0
 19 27  1  0
 27 28  2  0
 27 29  1  0
 29 30  2  0
 30 31  1  0
 31 32  2  0
 32 33  1  0
 32 34  1  0
 34 35  2  0
 17  2  1  0
 26 21  1  0
 35 29  1  0
 14  5  1  0
 35 17  1  0
 14  9  1  0
M  END
>  <cnnaffinities>  (120) 
[6.11844]

>  <score>  (120) 
6.11844

>  <index>  (120) 
58

>  <Smiles>  (120) 
C([C@]1(C(N(c2c(nc(c3c(c(c(c(c23)[H])[H])[H])[H])[H])[H])C(=O)[C@]21C(N(C(c1c(c(nc(n1)[H])[H])[H])([H])[H])C(=O)c1c(c(c(F)c(c21)[H])[H])[H])([H])[H])([H])[H])[H])([H])([H])[H]

>  <h>  (120) 
<NA>

>  <Training>  (120) 
True

>  <Success>  (120) 
True

>  <enamine_searched>  (120) 
False

>  <enamine_id>  (120) 
nan

$$$$

     RDKit          3D

 22 25  0  0  0  0  0  0  0  0999 V2000
   -9.1587    0.2434  -21.0736 O   0  0  0  0  0  0  0  0  0  0  0  0
   -8.3727   -0.3146  -21.8114 C   0  0  0  0  0  0  0  0  0  0  0  0
   -7.4418   -1.4119  -21.2706 C   0  0  0  0  0  0  0  0  0  0  0  0
   -6.5708   -0.8347  -20.1726 C   0  0  0  0  0  0  0  0  0  0  0  0
   -6.8774   -1.0417  -18.8538 C   0  0  0  0  0  0  0  0  0  0  0  0
   -6.1958   -0.5353  -17.7890 N   0  0  0  0  0  0  0  0  0  0  0  0
   -5.1577    0.2201  -18.0618 C   0  0  0  0  0  0  0  0  0  0  0  0
   -4.7233    0.5340  -19.3778 C   0  0  0  0  0  0  0  0  0  0  0  0
   -3.6020    1.3688  -19.6214 C   0  0  0  0  0  0  0  0  0  0  0  0
   -3.2131    1.6628  -20.9001 C   0  0  0  0  0  0  0  0  0  0  0  0
   -3.9325    1.1289  -21.9935 C   0  0  0  0  0  0  0  0  0  0  0  0
   -5.0200    0.3168  -21.7845 C   0  0  0  0  0  0  0  0  0  0  0  0
   -5.4495   -0.0025  -20.4695 C   0  0  0  0  0  0  0  0  0  0  0  0
   -8.1983    0.0596  -23.1440 N   0  0  0  0  0  0  0  0  0  0  0  0
   -8.2937   -0.8796  -24.2561 C   0  0  0  0  0  0  0  0  0  0  0  0
   -7.2941   -0.5154  -25.3456 C   0  0  0  0  0  0  0  0  0  0  0  0
   -7.4438    0.9371  -25.7869 C   0  0  0  0  0  0  0  0  0  0  0  0
   -8.6469    1.2002  -26.7326 C   0  0  0  0  0  0  0  0  0  0  0  0
   -7.6869    1.5964  -27.8743 C   0  0  0  0  0  0  0  0  0  0  0  0
   -6.4876    1.3376  -26.9349 C   0  0  0  0  0  0  0  0  0  0  0  0
   -7.3902    1.8635  -24.5778 C   0  0  0  0  0  0  0  0  0  0  0  0
   -8.3977    1.4600  -23.5015 C   0  0  0  0  0  0  0  0  0  0  0  0
  1  2  2  0
  2  3  1  0
  3  4  1  0
  4  5  2  0
  5  6  1  0
  6  7  2  0
  7  8  1  0
  8  9  2  0
  9 10  1  0
 10 11  2  0
 11 12  1  0
 12 13  2  0
  2 14  1  0
 14 15  1  0
 15 16  1  0
 16 17  1  0
 17 18  1  0
 18 19  1  0
 19 20  1  0
 17 21  1  0
 21 22  1  0
 13  4  1  0
 22 14  1  0
 13  8  1  0
 20 17  1  0
M  END
>  <cnnaffinities>  (121) 
[4.90438, 4.9042, 4.90421, 4.90283, 5.16196, 5.16198, 5.16238, 5.16196, 5.28119, 5.28119, 5.28121, 5.28119, 5.10988, 5.1098]

>  <score>  (121) 
4.90438

>  <index>  (121) 
61

>  <Smiles>  (121) 
O=C(C(c1c(nc(c2c(c(c(c(c12)[H])[H])[H])[H])[H])[H])([H])[H])N1C(C(C2(C(C(C2([H])[H])([H])[H])([H])[H])C(C1([H])[H])([H])[H])([H])[H])([H])[H]

>  <h>  (121) 
<NA>

>  <Training>  (121) 
True

>  <Success>  (121) 
True

>  <enamine_searched>  (121) 
False

>  <enamine_id>  (121) 
nan

$$$$

     RDKit          3D

 22 25  0  0  0  0  0  0  0  0999 V2000
   -5.6190   -3.1240  -21.3491 O   0  0  0  0  0  0  0  0  0  0  0  0
   -6.7704   -2.8713  -21.6751 C   0  0  0  0  0  0  0  0  0  0  0  0
   -7.4002   -1.5357  -21.2673 C   0  0  0  0  0  0  0  0  0  0  0  0
   -6.6000   -0.8624  -20.1868 C   0  0  0  0  0  0  0  0  0  0  0  0
   -6.9228   -1.0750  -18.8714 C   0  0  0  0  0  0  0  0  0  0  0  0
   -6.2604   -0.5654  -17.7972 N   0  0  0  0  0  0  0  0  0  0  0  0
   -5.2153    0.1864  -18.0627 C   0  0  0  0  0  0  0  0  0  0  0  0
   -4.7562    0.4861  -19.3750 C   0  0  0  0  0  0  0  0  0  0  0  0
   -3.6340    1.3227  -19.6055 C   0  0  0  0  0  0  0  0  0  0  0  0
   -3.2295    1.6035  -20.8830 C   0  0  0  0  0  0  0  0  0  0  0  0
   -3.9199    1.0542  -21.9839 C   0  0  0  0  0  0  0  0  0  0  0  0
   -5.0015    0.2318  -21.7886 C   0  0  0  0  0  0  0  0  0  0  0  0
   -5.4575   -0.0615  -20.4744 C   0  0  0  0  0  0  0  0  0  0  0  0
   -7.5427   -3.7613  -22.3908 N   0  0  0  0  0  0  0  0  0  0  0  0
   -7.1347   -5.1670  -22.3237 C   0  0  0  0  0  0  0  0  0  0  0  0
   -7.3394   -5.9034  -23.6473 C   0  0  0  0  0  0  0  0  0  0  0  0
   -8.8054   -5.7508  -24.1112 C   0  0  0  0  0  0  0  0  0  0  0  0
   -9.1108   -6.5524  -25.3803 C   0  0  0  0  0  0  0  0  0  0  0  0
   -9.6143   -7.9753  -25.3116 C   0  0  0  0  0  0  0  0  0  0  0  0
  -10.5131   -6.8855  -25.8294 C   0  0  0  0  0  0  0  0  0  0  0  0
   -9.1952   -4.2520  -24.1651 C   0  0  0  0  0  0  0  0  0  0  0  0
   -8.9324   -3.5408  -22.8238 C   0  0  0  0  0  0  0  0  0  0  0  0
  1  2  2  0
  2  3  1  0
  3  4  1  0
  4  5  2  0
  5  6  1  0
  6  7  2  0
  7  8  1  0
  8  9  2  0
  9 10  1  0
 10 11  2  0
 11 12  1  0
 12 13  2  0
  2 14  1  0
 14 15  1  0
 15 16  1  0
 16 17  1  0
 17 18  1  0
 18 19  1  0
 19 20  1  0
 17 21  1  0
 21 22  1  0
 13  4  1  0
 22 14  1  0
 13  8  1  0
 20 18  1  0
M  END
>  <cnnaffinities>  (122) 
[5.21571, 5.00304, 4.77328, 5.13501, 5.14929, 4.77, 5.08282]

>  <score>  (122) 
5.21571

>  <index>  (122) 
62

>  <Smiles>  (122) 
O=C(C(c1c(nc(c2c(c(c(c(c12)[H])[H])[H])[H])[H])[H])([H])[H])N1C(C(C(C2(C(C2([H])[H])([H])[H])[H])(C(C1([H])[H])([H])[H])[H])([H])[H])([H])[H]

>  <h>  (122) 
<NA>

>  <Training>  (122) 
True

>  <Success>  (122) 
True

>  <enamine_searched>  (122) 
False

>  <enamine_id>  (122) 
nan

$$$$

     RDKit          3D

 34 38  0  0  0  0  0  0  0  0999 V2000
   -7.3324    3.4294  -21.8687 C   0  0  0  0  0  0  0  0  0  0  0  0
   -8.1751    2.9550  -22.9498 N   0  0  0  0  0  0  0  0  0  0  0  0
   -7.5956    2.2485  -23.9500 C   0  0  0  0  0  0  0  0  0  0  0  0
   -6.3795    2.1269  -24.0447 O   0  0  0  0  0  0  0  0  0  0  0  0
   -8.5433    1.6226  -24.9792 C   0  0  0  0  0  0  0  0  0  0  0  0
   -9.2836    0.4793  -24.4767 N   0  0  0  0  0  0  0  0  0  0  0  0
   -8.5908   -0.7801  -24.2892 C   0  0  0  0  0  0  0  0  0  0  0  0
   -9.0100   -1.4744  -22.9652 C   0  0  2  0  0  0  0  0  0  0  0  0
   -8.4619   -0.6828  -21.7477 C   0  0  0  0  0  0  0  0  0  0  0  0
   -8.8693    0.3765  -21.3102 O   0  0  0  0  0  0  0  0  0  0  0  0
   -7.4065   -1.3790  -21.2031 N   0  0  0  0  0  0  0  0  0  0  0  0
   -6.6069   -0.8069  -20.1754 C   0  0  0  0  0  0  0  0  0  0  0  0
   -6.9106   -1.0426  -18.8591 C   0  0  0  0  0  0  0  0  0  0  0  0
   -6.2098   -0.5509  -17.8061 N   0  0  0  0  0  0  0  0  0  0  0  0
   -5.1708    0.2066  -18.0743 C   0  0  0  0  0  0  0  0  0  0  0  0
   -4.7334    0.5311  -19.3907 C   0  0  0  0  0  0  0  0  0  0  0  0
   -3.6045    1.3626  -19.6361 C   0  0  0  0  0  0  0  0  0  0  0  0
   -3.2145    1.6504  -20.9166 C   0  0  0  0  0  0  0  0  0  0  0  0
   -3.9338    1.1181  -22.0115 C   0  0  0  0  0  0  0  0  0  0  0  0
   -5.0291    0.3139  -21.7987 C   0  0  0  0  0  0  0  0  0  0  0  0
   -5.4669    0.0048  -20.4820 C   0  0  0  0  0  0  0  0  0  0  0  0
   -7.0812   -2.6120  -21.8961 C   0  0  0  0  0  0  0  0  0  0  0  0
   -8.3126   -2.8596  -22.7986 C   0  0  2  0  0  0  0  0  0  0  0  0
   -7.9426   -3.6165  -24.0856 C   0  0  0  0  0  0  0  0  0  0  0  0
   -7.3992   -4.8955  -23.8140 O   0  0  0  0  0  0  0  0  0  0  0  0
  -10.5283   -1.4905  -22.8972 C   0  0  0  0  0  0  0  0  0  0  0  0
  -11.1818   -2.3353  -21.9908 C   0  0  0  0  0  0  0  0  0  0  0  0
  -12.5616   -2.3300  -21.9098 C   0  0  0  0  0  0  0  0  0  0  0  0
  -13.3639   -3.3783  -20.7763 Cl  0  0  0  0  0  0  0  0  0  0  0  0
  -13.3326   -1.4768  -22.6981 C   0  0  0  0  0  0  0  0  0  0  0  0
  -12.6908   -0.5849  -23.5345 C   0  0  0  0  0  0  0  0  0  0  0  0
  -11.2974   -0.5571  -23.6066 C   0  0  0  0  0  0  0  0  0  0  0  0
  -10.6431    0.5734  -24.3464 C   0  0  0  0  0  0  0  0  0  0  0  0
  -11.2752    1.5342  -24.7618 O   0  0  0  0  0  0  0  0  0  0  0  0
  1  2  1  0
  2  3  1  0
  3  4  2  0
  3  5  1  0
  5  6  1  0
  6  7  1  0
  8  7  1  6
  8  9  1  0
  9 10  2  0
  9 11  1  0
 11 12  1  0
 12 13  2  0
 13 14  1  0
 14 15  2  0
 15 16  1  0
 16 17  2  0
 17 18  1  0
 18 19  2  0
 19 20  1  0
 20 21  2  0
 11 22  1  0
 22 23  1  0
 23 24  1  6
 24 25  1  0
  8 26  1  0
 26 27  2  0
 27 28  1  0
 28 29  1  0
 28 30  2  0
 30 31  1  0
 31 32  2  0
 32 33  1  0
 33 34  2  0
 33  6  1  0
 23  8  1  0
 32 26  1  0
 21 12  1  0
 21 16  1  0
M  END
>  <cnnaffinities>  (123) 
[6.18996]

>  <score>  (123) 
6.18996

>  <index>  (123) 
63

>  <Smiles>  (123) 
C(N(C(=O)C(N1C([C@@]2(C(=O)N(c3c(nc(c4c(c(c(c(c34)[H])[H])[H])[H])[H])[H])C([C@@]2(C(O[H])([H])[H])[H])([H])[H])c2c(c(Cl)c(c(c2C1=O)[H])[H])[H])([H])[H])([H])[H])[H])([H])([H])[H]

>  <h>  (123) 
<NA>

>  <Training>  (123) 
True

>  <Success>  (123) 
True

>  <enamine_searched>  (123) 
False

>  <enamine_id>  (123) 
nan

$$$$

     RDKit          3D

 36 41  0  0  0  0  0  0  0  0999 V2000
    6.6737   -1.1748   26.2500 C   0  0  0  0  0  0  0  0  0  0  0  0
    6.7863   -0.9199   24.8738 O   0  0  0  0  0  0  0  0  0  0  0  0
    7.9039   -1.5514   24.2883 C   0  0  0  0  0  0  0  0  0  0  0  0
    8.0282   -1.1356   22.8274 C   0  0  1  0  0  0  0  0  0  0  0  0
    6.7287   -1.3277   22.0358 C   0  0  0  0  0  0  0  0  0  0  0  0
    6.8386   -0.3414   20.9820 N   0  0  0  0  0  0  0  0  0  0  0  0
    5.8844   -0.1741   19.9472 C   0  0  0  0  0  0  0  0  0  0  0  0
    6.0990   -0.7636   18.7320 C   0  0  0  0  0  0  0  0  0  0  0  0
    5.2818   -0.6302   17.6601 N   0  0  0  0  0  0  0  0  0  0  0  0
    4.2101    0.1110   17.8120 C   0  0  0  0  0  0  0  0  0  0  0  0
    3.8532    0.7624   19.0279 C   0  0  0  0  0  0  0  0  0  0  0  0
    2.6827    1.5583   19.1502 C   0  0  0  0  0  0  0  0  0  0  0  0
    2.3570    2.1373   20.3446 C   0  0  0  0  0  0  0  0  0  0  0  0
    3.1932    1.9632   21.4708 C   0  0  0  0  0  0  0  0  0  0  0  0
    4.3458    1.2210   21.3731 C   0  0  0  0  0  0  0  0  0  0  0  0
    4.7056    0.6069   20.1435 C   0  0  0  0  0  0  0  0  0  0  0  0
    7.7894    0.6315   21.2039 C   0  0  0  0  0  0  0  0  0  0  0  0
    7.9929    1.5541   20.4463 O   0  0  0  0  0  0  0  0  0  0  0  0
    8.5270    0.3158   22.5288 C   0  0  1  0  0  0  0  0  0  0  0  0
    8.1058    1.3166   23.6443 C   0  0  0  0  0  0  0  0  0  0  0  0
    8.6683    2.6451   23.4638 N   0  0  0  0  0  0  0  0  0  0  0  0
    7.8547    3.8020   23.8048 C   0  0  0  0  0  0  0  0  0  0  0  0
    7.1164    4.3102   22.6121 C   0  0  0  0  0  0  0  0  0  0  0  0
    5.9039    3.9315   22.2758 N   0  0  0  0  0  0  0  0  0  0  0  0
    5.6204    4.6640   21.1473 C   0  0  0  0  0  0  0  0  0  0  0  0
    6.6654    5.4812   20.8065 C   0  0  0  0  0  0  0  0  0  0  0  0
    7.6290    5.2337   21.7649 N   0  0  0  0  0  0  0  0  0  0  0  0
    9.9379    2.8774   23.0155 C   0  0  0  0  0  0  0  0  0  0  0  0
   10.4141    4.0096   22.9973 O   0  0  0  0  0  0  0  0  0  0  0  0
   10.6953    1.6556   22.5772 C   0  0  0  0  0  0  0  0  0  0  0  0
   12.0795    1.7454   22.4241 C   0  0  0  0  0  0  0  0  0  0  0  0
   12.8040    0.6786   21.9304 C   0  0  0  0  0  0  0  0  0  0  0  0
   12.1251   -0.4824   21.5687 C   0  0  0  0  0  0  0  0  0  0  0  0
   12.9974   -1.8086   20.8453 Cl  0  0  0  0  0  0  0  0  0  0  0  0
   10.7563   -0.5880   21.7209 C   0  0  0  0  0  0  0  0  0  0  0  0
   10.0255    0.4507   22.3106 C   0  0  0  0  0  0  0  0  0  0  0  0
  1  2  1  0
  2  3  1  0
  4  3  1  1
  4  5  1  0
  5  6  1  0
  6  7  1  0
  7  8  2  0
  8  9  1  0
  9 10  2  0
 10 11  1  0
 11 12  2  0
 12 13  1  0
 13 14  2  0
 14 15  1  0
 15 16  2  0
  6 17  1  0
 17 18  2  0
 17 19  1  0
 19 20  1  1
 20 21  1  0
 21 22  1  0
 22 23  1  0
 23 24  2  0
 24 25  1  0
 25 26  2  0
 26 27  1  0
 21 28  1  0
 28 29  2  0
 28 30  1  0
 30 31  2  0
 31 32  1  0
 32 33  2  0
 33 34  1  0
 33 35  1  0
 35 36  2  0
 19  4  1  0
 27 23  1  0
 36 30  1  0
 16  7  1  0
 36 19  1  0
 16 11  1  0
M  END
>  <cnnaffinities>  (124) 
[6.31569, 6.08951, 6.21651]

>  <score>  (124) 
6.31569

>  <index>  (124) 
59

>  <Smiles>  (124) 
C(OC([C@]1(C(N(c2c(nc(c3c(c(c(c(c23)[H])[H])[H])[H])[H])[H])C(=O)[C@]21C(N(C(c1nc(c(n1[H])[H])[H])([H])[H])C(=O)c1c(c(c(Cl)c(c21)[H])[H])[H])([H])[H])([H])[H])[H])([H])[H])([H])([H])[H]

>  <h>  (124) 
<NA>

>  <Training>  (124) 
True

>  <Success>  (124) 
True

>  <enamine_searched>  (124) 
False

>  <enamine_id>  (124) 
nan

$$$$

     RDKit          3D

 22 25  0  0  0  0  0  0  0  0999 V2000
    5.3242   -1.8081   22.1240 O   0  0  0  0  0  0  0  0  0  0  0  0
    6.4914   -1.4662   22.0555 C   0  0  0  0  0  0  0  0  0  0  0  0
    6.9027   -0.3589   21.0565 C   0  0  0  0  0  0  0  0  0  0  0  0
    5.8699   -0.1738   19.9708 C   0  0  0  0  0  0  0  0  0  0  0  0
    6.0295   -0.8077   18.7673 C   0  0  0  0  0  0  0  0  0  0  0  0
    5.2145   -0.6835   17.6873 N   0  0  0  0  0  0  0  0  0  0  0  0
    4.1585    0.0818   17.8284 C   0  0  0  0  0  0  0  0  0  0  0  0
    3.8176    0.7421   19.0416 C   0  0  0  0  0  0  0  0  0  0  0  0
    2.6281    1.5027   19.1720 C   0  0  0  0  0  0  0  0  0  0  0  0
    2.3162    2.1241   20.3506 C   0  0  0  0  0  0  0  0  0  0  0  0
    3.1911    2.0157   21.4519 C   0  0  0  0  0  0  0  0  0  0  0  0
    4.3509    1.2834   21.3531 C   0  0  0  0  0  0  0  0  0  0  0  0
    4.6936    0.6177   20.1458 C   0  0  0  0  0  0  0  0  0  0  0  0
    7.4672   -2.0571   22.8297 N   0  0  0  0  0  0  0  0  0  0  0  0
    7.2395   -3.3969   23.3783 C   0  0  0  0  0  0  0  0  0  0  0  0
    7.6139   -3.4705   24.8563 C   0  0  0  0  0  0  0  0  0  0  0  0
    8.9623   -2.8563   25.0686 C   0  0  0  0  0  0  0  0  0  0  0  0
    9.9880   -3.1506   26.4331 S   0  0  0  0  0  0  0  0  0  0  0  0
   11.1577   -2.0263   25.8431 C   0  0  0  0  0  0  0  0  0  0  0  0
   10.7751   -1.4659   24.6596 C   0  0  0  0  0  0  0  0  0  0  0  0
    9.5069   -1.9504   24.2141 C   0  0  0  0  0  0  0  0  0  0  0  0
    8.8148   -1.5203   22.9475 C   0  0  0  0  0  0  0  0  0  0  0  0
  1  2  2  0
  2  3  1  0
  3  4  1  0
  4  5  2  0
  5  6  1  0
  6  7  2  0
  7  8  1  0
  8  9  2  0
  9 10  1  0
 10 11  2  0
 11 12  1  0
 12 13  2  0
  2 14  1  0
 14 15  1  0
 15 16  1  0
 16 17  1  0
 17 18  1  0
 18 19  1  0
 19 20  2  0
 20 21  1  0
 21 22  1  0
 13  4  1  0
 22 14  1  0
 13  8  1  0
 21 17  2  0
M  END
>  <cnnaffinities>  (125) 
[5.09864, 5.09269, 5.05003, 5.10686, 5.23147]

>  <score>  (125) 
5.09864

>  <index>  (125) 
50

>  <Smiles>  (125) 
O=C(C(c1c(nc(c2c(c(c(c(c12)[H])[H])[H])[H])[H])[H])([H])[H])N1C(C(c2sc(c(c2C1([H])[H])[H])[H])([H])[H])([H])[H]

>  <h>  (125) 
<NA>

>  <Training>  (125) 
True

>  <Success>  (125) 
True

>  <enamine_searched>  (125) 
False

>  <enamine_id>  (125) 
nan

$$$$

     RDKit          3D

 34 39  0  0  0  0  0  0  0  0999 V2000
   -7.8947   -3.6658  -24.0483 C   0  0  0  0  0  0  0  0  0  0  0  0
   -8.3027   -2.8637  -22.8051 C   0  0  1  0  0  0  0  0  0  0  0  0
   -7.1158   -2.6450  -21.8411 C   0  0  0  0  0  0  0  0  0  0  0  0
   -7.4108   -1.3818  -21.1939 N   0  0  0  0  0  0  0  0  0  0  0  0
   -6.6036   -0.8089  -20.1710 C   0  0  0  0  0  0  0  0  0  0  0  0
   -6.9037   -1.0475  -18.8560 C   0  0  0  0  0  0  0  0  0  0  0  0
   -6.2038   -0.5526  -17.8027 N   0  0  0  0  0  0  0  0  0  0  0  0
   -5.1694    0.2090  -18.0717 C   0  0  0  0  0  0  0  0  0  0  0  0
   -4.7324    0.5317  -19.3896 C   0  0  0  0  0  0  0  0  0  0  0  0
   -3.6032    1.3631  -19.6345 C   0  0  0  0  0  0  0  0  0  0  0  0
   -3.2051    1.6376  -20.9129 C   0  0  0  0  0  0  0  0  0  0  0  0
   -3.9090    1.0847  -22.0063 C   0  0  0  0  0  0  0  0  0  0  0  0
   -5.0028    0.2779  -21.7956 C   0  0  0  0  0  0  0  0  0  0  0  0
   -5.4587   -0.0030  -20.4797 C   0  0  0  0  0  0  0  0  0  0  0  0
   -8.3753   -0.6326  -21.8311 C   0  0  0  0  0  0  0  0  0  0  0  0
   -8.7125    0.4734  -21.4701 O   0  0  0  0  0  0  0  0  0  0  0  0
   -8.9225   -1.4448  -23.0390 C   0  0  1  0  0  0  0  0  0  0  0  0
   -8.4174   -0.8253  -24.3698 C   0  0  0  0  0  0  0  0  0  0  0  0
   -9.0361    0.4537  -24.6505 N   0  0  0  0  0  0  0  0  0  0  0  0
   -8.2302    1.6143  -25.0043 C   0  0  0  0  0  0  0  0  0  0  0  0
   -7.9775    2.5281  -23.8351 C   0  0  0  0  0  0  0  0  0  0  0  0
   -6.7865    2.5706  -23.1684 N   0  0  0  0  0  0  0  0  0  0  0  0
   -7.0249    3.4374  -22.2025 C   0  0  0  0  0  0  0  0  0  0  0  0
   -8.2754    3.9191  -22.3168 N   0  0  0  0  0  0  0  0  0  0  0  0
   -8.9004    3.3380  -23.3599 N   0  0  0  0  0  0  0  0  0  0  0  0
  -10.3925    0.6154  -24.5872 C   0  0  0  0  0  0  0  0  0  0  0  0
  -10.9495    1.5802  -25.0934 O   0  0  0  0  0  0  0  0  0  0  0  0
  -11.1332   -0.4341  -23.8106 C   0  0  0  0  0  0  0  0  0  0  0  0
  -12.5287   -0.3767  -23.7878 C   0  0  0  0  0  0  0  0  0  0  0  0
  -13.2553   -1.2094  -22.9600 C   0  0  0  0  0  0  0  0  0  0  0  0
  -12.5575   -2.0779  -22.1298 C   0  0  0  0  0  0  0  0  0  0  0  0
  -13.2528   -2.8477  -21.2768 F   0  0  0  0  0  0  0  0  0  0  0  0
  -11.1814   -2.1656  -22.1393 C   0  0  0  0  0  0  0  0  0  0  0  0
  -10.4436   -1.3802  -23.0347 C   0  0  0  0  0  0  0  0  0  0  0  0
  2  1  1  6
  2  3  1  0
  3  4  1  0
  4  5  1  0
  5  6  2  0
  6  7  1  0
  7  8  2  0
  8  9  1  0
  9 10  2  0
 10 11  1  0
 11 12  2  0
 12 13  1  0
 13 14  2  0
  4 15  1  0
 15 16  2  0
 15 17  1  0
 17 18  1  6
 18 19  1  0
 19 20  1  0
 20 21  1  0
 21 22  1  0
 22 23  2  0
 23 24  1  0
 24 25  1  0
 19 26  1  0
 26 27  2  0
 26 28  1  0
 28 29  2  0
 29 30  1  0
 30 31  2  0
 31 32  1  0
 31 33  1  0
 33 34  2  0
 17  2  1  0
 25 21  2  0
 34 28  1  0
 14  5  1  0
 34 17  1  0
 14  9  1  0
M  END
>  <cnnaffinities>  (126) 
[6.47789, 6.3372]

>  <score>  (126) 
6.47789

>  <index>  (126) 
64

>  <Smiles>  (126) 
C([C@]1(C(N(c2c(nc(c3c(c(c(c(c23)[H])[H])[H])[H])[H])[H])C(=O)[C@]21C(N(C(c1nc(n(n1)[H])[H])([H])[H])C(=O)c1c(c(c(F)c(c21)[H])[H])[H])([H])[H])([H])[H])[H])([H])([H])[H]

>  <h>  (126) 
<NA>

>  <Training>  (126) 
True

>  <Success>  (126) 
True

>  <enamine_searched>  (126) 
False

>  <enamine_id>  (126) 
nan

$$$$

     RDKit          3D

 41 47  0  0  0  0  0  0  0  0999 V2000
   10.4326    4.1038   23.0087 O   0  0  0  0  0  0  0  0  0  0  0  0
    9.9420    2.9891   22.8988 C   0  0  0  0  0  0  0  0  0  0  0  0
   10.7487    1.7751   22.5348 C   0  0  0  0  0  0  0  0  0  0  0  0
   12.1273    1.9225   22.3892 C   0  0  0  0  0  0  0  0  0  0  0  0
   12.9036    0.8780   21.9310 C   0  0  0  0  0  0  0  0  0  0  0  0
   12.2735   -0.3169   21.5863 C   0  0  0  0  0  0  0  0  0  0  0  0
   13.2171   -1.6022   20.8800 Cl  0  0  0  0  0  0  0  0  0  0  0  0
   10.9050   -0.4778   21.7124 C   0  0  0  0  0  0  0  0  0  0  0  0
   10.1252    0.5461   22.2613 C   0  0  0  0  0  0  0  0  0  0  0  0
    8.6230    0.3666   22.4302 C   0  0  1  0  0  0  0  0  0  0  0  0
    8.1526    1.4309   23.4567 C   0  0  0  0  0  0  0  0  0  0  0  0
    8.6073    2.7491   23.0658 N   0  0  0  0  0  0  0  0  0  0  0  0
    7.6709    3.8567   23.1229 C   0  0  0  0  0  0  0  0  0  0  0  0
    7.3487    4.3188   24.5332 C   0  0  0  0  0  0  0  0  0  0  0  0
    8.1538    5.2248   25.1870 C   0  0  0  0  0  0  0  0  0  0  0  0
    7.8305    5.5331   26.5081 C   0  0  0  0  0  0  0  0  0  0  0  0
    6.7950    5.0158   27.1599 N   0  0  0  0  0  0  0  0  0  0  0  0
    5.9938    4.1692   26.5292 N   0  0  0  0  0  0  0  0  0  0  0  0
    6.2534    3.8389   25.2671 C   0  0  0  0  0  0  0  0  0  0  0  0
    7.8751    0.6296   21.1046 C   0  0  0  0  0  0  0  0  0  0  0  0
    8.0685    1.5220   20.3187 O   0  0  0  0  0  0  0  0  0  0  0  0
    6.8670   -0.3016   20.9734 N   0  0  0  0  0  0  0  0  0  0  0  0
    5.8912   -0.1551   19.9534 C   0  0  0  0  0  0  0  0  0  0  0  0
    6.0616   -0.8019   18.7591 C   0  0  0  0  0  0  0  0  0  0  0  0
    5.2315   -0.6775   17.6937 N   0  0  0  0  0  0  0  0  0  0  0  0
    4.1770    0.0870   17.8392 C   0  0  0  0  0  0  0  0  0  0  0  0
    3.8333    0.7571   19.0474 C   0  0  0  0  0  0  0  0  0  0  0  0
    2.6548    1.5403   19.1723 C   0  0  0  0  0  0  0  0  0  0  0  0
    2.3602    2.1805   20.3422 C   0  0  0  0  0  0  0  0  0  0  0  0
    3.2433    2.0836   21.4413 C   0  0  0  0  0  0  0  0  0  0  0  0
    4.3928    1.3382   21.3455 C   0  0  0  0  0  0  0  0  0  0  0  0
    4.7193    0.6478   20.1437 C   0  0  0  0  0  0  0  0  0  0  0  0
    6.7694   -1.2198   22.0888 C   0  0  0  0  0  0  0  0  0  0  0  0
    8.1396   -1.0721   22.7823 C   0  0  2  0  0  0  0  0  0  0  0  0
    8.0889   -1.4630   24.2712 C   0  0  0  0  0  0  0  0  0  0  0  0
    9.3518   -1.2612   24.9602 N   0  0  0  0  0  0  0  0  0  0  0  0
   10.4491   -1.9803   24.6562 C   0  0  0  0  0  0  0  0  0  0  0  0
   10.4369   -3.0167   23.8581 N   0  0  0  0  0  0  0  0  0  0  0  0
   11.6747   -3.5506   23.7089 N   0  0  0  0  0  0  0  0  0  0  0  0
   12.5966   -2.9361   24.3574 C   0  0  0  0  0  0  0  0  0  0  0  0
   12.0283   -1.5806   25.2785 S   0  0  0  0  0  0  0  0  0  0  0  0
  1  2  2  0
  2  3  1  0
  3  4  2  0
  4  5  1  0
  5  6  2  0
  6  7  1  0
  6  8  1  0
  8  9  2  0
  9 10  1  0
 10 11  1  1
 11 12  1  0
 12 13  1  0
 13 14  1  0
 14 15  2  0
 15 16  1  0
 16 17  2  0
 17 18  1  0
 18 19  2  0
 10 20  1  0
 20 21  2  0
 20 22  1  0
 22 23  1  0
 23 24  2  0
 24 25  1  0
 25 26  2  0
 26 27  1  0
 27 28  2  0
 28 29  1  0
 29 30  2  0
 30 31  1  0
 31 32  2  0
 22 33  1  0
 33 34  1  0
 34 35  1  1
 35 36  1  0
 36 37  1  0
 37 38  2  0
 38 39  1  0
 39 40  2  0
 40 41  1  0
 12  2  1  0
 19 14  1  0
 32 23  1  0
 41 37  1  0
  9  3  1  0
 34 10  1  0
 32 27  1  0
M  END
>  <cnnaffinities>  (127) 
[6.52991, 6.57055]

>  <score>  (127) 
6.52991

>  <index>  (127) 
61

>  <Smiles>  (127) 
O=C1c2c(c(c(Cl)c(c2[C@@]2(C(N1C(c1c(c(nnc1[H])[H])[H])([H])[H])([H])[H])C(=O)N(c1c(nc(c3c(c(c(c(c13)[H])[H])[H])[H])[H])[H])C([C@@]2(C(N(c1nnc(s1)[H])[H])([H])[H])[H])([H])[H])[H])[H])[H]

>  <h>  (127) 
<NA>

>  <Training>  (127) 
True

>  <Success>  (127) 
True

>  <enamine_searched>  (127) 
False

>  <enamine_id>  (127) 
nan

$$$$

     RDKit          3D

 34 39  0  0  0  0  0  0  0  0999 V2000
   -7.8772   -3.5903  -24.1092 C   0  0  0  0  0  0  0  0  0  0  0  0
   -8.2850   -2.8482  -22.8272 C   0  0  1  0  0  0  0  0  0  0  0  0
   -7.0792   -2.6109  -21.8894 C   0  0  0  0  0  0  0  0  0  0  0  0
   -7.4058   -1.3807  -21.1965 N   0  0  0  0  0  0  0  0  0  0  0  0
   -6.6020   -0.8094  -20.1712 C   0  0  0  0  0  0  0  0  0  0  0  0
   -6.9082   -1.0436  -18.8572 C   0  0  0  0  0  0  0  0  0  0  0  0
   -6.2072   -0.5514  -17.8038 N   0  0  0  0  0  0  0  0  0  0  0  0
   -5.1724    0.2085  -18.0743 C   0  0  0  0  0  0  0  0  0  0  0  0
   -4.7354    0.5342  -19.3915 C   0  0  0  0  0  0  0  0  0  0  0  0
   -3.6068    1.3662  -19.6358 C   0  0  0  0  0  0  0  0  0  0  0  0
   -3.2103    1.6427  -20.9133 C   0  0  0  0  0  0  0  0  0  0  0  0
   -3.9147    1.0909  -22.0068 C   0  0  0  0  0  0  0  0  0  0  0  0
   -5.0057    0.2797  -21.7976 C   0  0  0  0  0  0  0  0  0  0  0  0
   -5.4582   -0.0047  -20.4815 C   0  0  0  0  0  0  0  0  0  0  0  0
   -8.4338   -0.6633  -21.7648 C   0  0  0  0  0  0  0  0  0  0  0  0
   -8.8285    0.3987  -21.3316 O   0  0  0  0  0  0  0  0  0  0  0  0
   -8.9708   -1.4505  -22.9962 C   0  0  1  0  0  0  0  0  0  0  0  0
   -8.5195   -0.7782  -24.3215 C   0  0  0  0  0  0  0  0  0  0  0  0
   -9.2025    0.4715  -24.5713 N   0  0  0  0  0  0  0  0  0  0  0  0
   -8.4383    1.6649  -24.9033 C   0  0  0  0  0  0  0  0  0  0  0  0
   -8.1396    2.5193  -23.7045 C   0  0  0  0  0  0  0  0  0  0  0  0
   -8.9547    3.3792  -23.0599 C   0  0  0  0  0  0  0  0  0  0  0  0
   -8.2685    3.9263  -22.0252 O   0  0  0  0  0  0  0  0  0  0  0  0
   -7.0624    3.3384  -22.0705 C   0  0  0  0  0  0  0  0  0  0  0  0
   -6.9111    2.5076  -23.0518 N   0  0  0  0  0  0  0  0  0  0  0  0
  -10.5533    0.6074  -24.4172 C   0  0  0  0  0  0  0  0  0  0  0  0
  -11.1526    1.5998  -24.8167 O   0  0  0  0  0  0  0  0  0  0  0  0
  -11.2372   -0.5068  -23.6797 C   0  0  0  0  0  0  0  0  0  0  0  0
  -12.6327   -0.5137  -23.6279 C   0  0  0  0  0  0  0  0  0  0  0  0
  -13.3011   -1.4093  -22.8165 C   0  0  0  0  0  0  0  0  0  0  0  0
  -12.5494   -2.2774  -22.0333 C   0  0  0  0  0  0  0  0  0  0  0  0
  -13.1905   -3.1063  -21.1927 F   0  0  0  0  0  0  0  0  0  0  0  0
  -11.1721   -2.3049  -22.0786 C   0  0  0  0  0  0  0  0  0  0  0  0
  -10.4914   -1.4532  -22.9585 C   0  0  0  0  0  0  0  0  0  0  0  0
  2  1  1  6
  2  3  1  0
  3  4  1  0
  4  5  1  0
  5  6  2  0
  6  7  1  0
  7  8  2  0
  8  9  1  0
  9 10  2  0
 10 11  1  0
 11 12  2  0
 12 13  1  0
 13 14  2  0
  4 15  1  0
 15 16  2  0
 15 17  1  0
 17 18  1  6
 18 19  1  0
 19 20  1  0
 20 21  1  0
 21 22  2  0
 22 23  1  0
 23 24  1  0
 24 25  2  0
 19 26  1  0
 26 27  2  0
 26 28  1  0
 28 29  2  0
 29 30  1  0
 30 31  2  0
 31 32  1  0
 31 33  1  0
 33 34  2  0
 17  2  1  0
 25 21  1  0
 34 28  1  0
 14  5  1  0
 34 17  1  0
 14  9  1  0
M  END
>  <cnnaffinities>  (128) 
[6.1734, 6.2808]

>  <score>  (128) 
6.1734

>  <index>  (128) 
65

>  <Smiles>  (128) 
C([C@]1(C(N(c2c(nc(c3c(c(c(c(c23)[H])[H])[H])[H])[H])[H])C(=O)[C@]21C(N(C(c1c(oc(n1)[H])[H])([H])[H])C(=O)c1c(c(c(F)c(c21)[H])[H])[H])([H])[H])([H])[H])[H])([H])([H])[H]

>  <h>  (128) 
<NA>

>  <Training>  (128) 
True

>  <Success>  (128) 
True

>  <enamine_searched>  (128) 
False

>  <enamine_id>  (128) 
nan

$$$$

     RDKit          3D

 38 44  0  0  0  0  0  0  0  0999 V2000
    8.2842   -1.5402   24.1868 C   0  0  0  0  0  0  0  0  0  0  0  0
    8.1928   -1.2386   22.6992 C   0  0  1  0  0  0  0  0  0  0  0  0
    6.7503   -1.1961   22.1585 C   0  0  0  0  0  0  0  0  0  0  0  0
    6.8779   -0.3599   20.9808 N   0  0  0  0  0  0  0  0  0  0  0  0
    5.9105   -0.1776   19.9603 C   0  0  0  0  0  0  0  0  0  0  0  0
    6.1221   -0.7468   18.7318 C   0  0  0  0  0  0  0  0  0  0  0  0
    5.2947   -0.6121   17.6684 N   0  0  0  0  0  0  0  0  0  0  0  0
    4.2217    0.1236   17.8360 C   0  0  0  0  0  0  0  0  0  0  0  0
    3.8822    0.7853   19.0490 C   0  0  0  0  0  0  0  0  0  0  0  0
    2.7233    1.5985   19.1600 C   0  0  0  0  0  0  0  0  0  0  0  0
    2.4227    2.2276   20.3372 C   0  0  0  0  0  0  0  0  0  0  0  0
    3.2774    2.0881   21.4503 C   0  0  0  0  0  0  0  0  0  0  0  0
    4.4148    1.3187   21.3661 C   0  0  0  0  0  0  0  0  0  0  0  0
    4.7464    0.6331   20.1619 C   0  0  0  0  0  0  0  0  0  0  0  0
    8.0445    0.3658   20.9543 C   0  0  0  0  0  0  0  0  0  0  0  0
    8.3456    1.1349   20.0641 O   0  0  0  0  0  0  0  0  0  0  0  0
    8.8378    0.1016   22.2437 C   0  0  1  0  0  0  0  0  0  0  0  0
    8.5438    1.2663   23.2369 C   0  0  0  0  0  0  0  0  0  0  0  0
    9.0857    2.5248   22.7520 N   0  0  0  0  0  0  0  0  0  0  0  0
    8.2765    3.7309   22.7460 C   0  0  0  0  0  0  0  0  0  0  0  0
    7.2873    3.7613   21.5799 C   0  0  0  0  0  0  0  0  0  0  0  0
    6.3765    4.9327   21.6422 N   0  0  2  0  0  0  0  0  0  0  0  0
    5.5091    4.9330   22.8736 C   0  0  0  0  0  0  0  0  0  0  0  0
    4.3049    5.8052   22.5386 C   0  0  0  0  0  0  0  0  0  0  0  0
    4.2422    5.9157   21.0089 C   0  0  0  0  0  0  0  0  0  0  0  0
    2.8484    5.6427   20.4116 C   0  0  0  0  0  0  0  0  0  0  0  0
    2.6134    7.0448   20.2180 O   0  0  0  0  0  0  0  0  0  0  0  0
    3.9953    7.3451   20.4713 C   0  0  0  0  0  0  0  0  0  0  0  0
    5.4266    5.1083   20.4844 C   0  0  0  0  0  0  0  0  0  0  0  0
   10.3905    2.6037   22.3688 C   0  0  0  0  0  0  0  0  0  0  0  0
   10.9740    3.6628   22.1744 O   0  0  0  0  0  0  0  0  0  0  0  0
   11.0770    1.2776   22.1754 C   0  0  0  0  0  0  0  0  0  0  0  0
   12.4646    1.2795   22.0621 C   0  0  0  0  0  0  0  0  0  0  0  0
   13.1277    0.1489   21.6339 C   0  0  0  0  0  0  0  0  0  0  0  0
   12.3861   -0.9885   21.3188 C   0  0  0  0  0  0  0  0  0  0  0  0
   13.2249   -2.3267   20.5983 Cl  0  0  0  0  0  0  0  0  0  0  0  0
   11.0143   -1.0376   21.5116 C   0  0  0  0  0  0  0  0  0  0  0  0
   10.3370    0.0954   21.9940 C   0  0  0  0  0  0  0  0  0  0  0  0
  2  1  1  1
  2  3  1  0
  3  4  1  0
  4  5  1  0
  5  6  2  0
  6  7  1  0
  7  8  2  0
  8  9  1  0
  9 10  2  0
 10 11  1  0
 11 12  2  0
 12 13  1  0
 13 14  2  0
  4 15  1  0
 15 16  2  0
 15 17  1  0
 17 18  1  1
 18 19  1  0
 19 20  1  0
 20 21  1  0
 22 21  1  6
 22 23  1  0
 23 24  1  0
 24 25  1  0
 25 26  1  0
 26 27  1  0
 27 28  1  0
 25 29  1  0
 19 30  1  0
 30 31  2  0
 30 32  1  0
 32 33  2  0
 33 34  1  0
 34 35  2  0
 35 36  1  0
 35 37  1  0
 37 38  2  0
 17  2  1  0
 29 22  1  0
 38 32  1  0
 14  5  1  0
 38 17  1  0
 14  9  1  0
 28 25  1  0
M  CHG  1  22   1
M  END
>  <cnnaffinities>  (129) 
[6.74183]

>  <score>  (129) 
6.74183

>  <index>  (129) 
62

>  <Smiles>  (129) 
C([C@]1(C(N(c2c(nc(c3c(c(c(c(c23)[H])[H])[H])[H])[H])[H])C(=O)[C@]21C(N(C(C([N@@+]1(C(C(C3(C(OC3([H])[H])([H])[H])C1([H])[H])([H])[H])([H])[H])[H])([H])[H])([H])[H])C(=O)c1c(c(c(Cl)c(c21)[H])[H])[H])([H])[H])([H])[H])[H])([H])([H])[H]

>  <h>  (129) 
<NA>

>  <Training>  (129) 
True

>  <Success>  (129) 
True

>  <enamine_searched>  (129) 
False

>  <enamine_id>  (129) 
nan

$$$$

     RDKit          3D

 24 27  0  0  0  0  0  0  0  0999 V2000
   -9.8236    1.4199  -24.4304 C   0  0  0  0  0  0  0  0  0  0  0  0
  -10.9580    0.5041  -23.9938 C   0  0  0  0  0  0  0  0  0  0  0  0
  -10.7774   -0.1444  -22.6088 C   0  0  1  0  0  0  0  0  0  0  0  0
  -11.9959   -0.9587  -22.2769 C   0  0  0  0  0  0  0  0  0  0  0  0
  -13.3238   -0.4426  -22.1250 C   0  0  0  0  0  0  0  0  0  0  0  0
  -14.2162   -1.4148  -21.8014 C   0  0  0  0  0  0  0  0  0  0  0  0
  -13.4767   -2.9683  -21.7503 S   0  0  0  0  0  0  0  0  0  0  0  0
  -11.9267   -2.3064  -22.1083 C   0  0  0  0  0  0  0  0  0  0  0  0
  -10.6905   -3.1503  -22.2546 C   0  0  0  0  0  0  0  0  0  0  0  0
   -9.6556   -2.3130  -23.0073 C   0  0  0  0  0  0  0  0  0  0  0  0
   -9.5722   -0.9614  -22.4595 N   0  0  0  0  0  0  0  0  0  0  0  0
   -8.5264   -0.4264  -21.7485 C   0  0  0  0  0  0  0  0  0  0  0  0
   -8.4695    0.7609  -21.4641 O   0  0  0  0  0  0  0  0  0  0  0  0
   -7.4610   -1.4118  -21.2629 C   0  0  0  0  0  0  0  0  0  0  0  0
   -6.5970   -0.8339  -20.1813 C   0  0  0  0  0  0  0  0  0  0  0  0
   -6.9084   -1.0538  -18.8663 C   0  0  0  0  0  0  0  0  0  0  0  0
   -6.2369   -0.5498  -17.7955 N   0  0  0  0  0  0  0  0  0  0  0  0
   -5.1962    0.2060  -18.0639 C   0  0  0  0  0  0  0  0  0  0  0  0
   -4.7572    0.5221  -19.3776 C   0  0  0  0  0  0  0  0  0  0  0  0
   -3.6274    1.3491  -19.6119 C   0  0  0  0  0  0  0  0  0  0  0  0
   -3.2346    1.6432  -20.8897 C   0  0  0  0  0  0  0  0  0  0  0  0
   -3.9535    1.1254  -21.9911 C   0  0  0  0  0  0  0  0  0  0  0  0
   -5.0545    0.3274  -21.7916 C   0  0  0  0  0  0  0  0  0  0  0  0
   -5.4791   -0.0011  -20.4751 C   0  0  0  0  0  0  0  0  0  0  0  0
  1  2  1  0
  3  2  1  6
  3  4  1  0
  4  5  1  0
  5  6  2  0
  6  7  1  0
  7  8  1  0
  8  9  1  0
  9 10  1  0
 10 11  1  0
 11 12  1  0
 12 13  2  0
 12 14  1  0
 14 15  1  0
 15 16  2  0
 16 17  1  0
 17 18  2  0
 18 19  1  0
 19 20  2  0
 20 21  1  0
 21 22  2  0
 22 23  1  0
 23 24  2  0
 11  3  1  0
 24 15  1  0
  8  4  2  0
 24 19  1  0
M  END
>  <cnnaffinities>  (130) 
[5.73898]

>  <score>  (130) 
5.73898

>  <index>  (130) 
66

>  <Smiles>  (130) 
C(C([C@]1(c2c(c(sc2C(C(N1C(=O)C(c1c(nc(c2c(c(c(c(c12)[H])[H])[H])[H])[H])[H])([H])[H])([H])[H])([H])[H])[H])[H])[H])([H])[H])([H])([H])[H]

>  <h>  (130) 
<NA>

>  <Training>  (130) 
True

>  <Success>  (130) 
True

>  <enamine_searched>  (130) 
False

>  <enamine_id>  (130) 
nan

$$$$

     RDKit          3D

 34 39  0  0  0  0  0  0  0  0999 V2000
    4.8598    4.6655   20.5863 C   0  0  0  0  0  0  0  0  0  0  0  0
    6.0431    4.7701   21.4081 N   0  0  0  0  0  0  0  0  0  0  0  0
    7.0657    5.6151   21.1768 C   0  0  0  0  0  0  0  0  0  0  0  0
    8.0112    5.3803   22.1442 C   0  0  0  0  0  0  0  0  0  0  0  0
    7.4601    4.3486   22.9350 C   0  0  0  0  0  0  0  0  0  0  0  0
    8.0514    3.6578   24.1385 C   0  0  0  0  0  0  0  0  0  0  0  0
    8.8053    2.4654   23.7720 N   0  0  0  0  0  0  0  0  0  0  0  0
    8.1676    1.1664   23.8206 C   0  0  0  0  0  0  0  0  0  0  0  0
    8.4701    0.2706   22.5986 C   0  0  1  0  0  0  0  0  0  0  0  0
    7.9078   -1.1401   22.9002 C   0  0  0  0  0  0  0  0  0  0  0  0
    7.0682   -1.5726   21.6941 C   0  0  0  0  0  0  0  0  0  0  0  0
    6.7831   -0.3059   21.0542 N   0  0  0  0  0  0  0  0  0  0  0  0
    5.8733   -0.1455   19.9917 C   0  0  0  0  0  0  0  0  0  0  0  0
    6.0899   -0.7679   18.7898 C   0  0  0  0  0  0  0  0  0  0  0  0
    5.2969   -0.6218   17.7043 N   0  0  0  0  0  0  0  0  0  0  0  0
    4.2393    0.1473   17.8429 C   0  0  0  0  0  0  0  0  0  0  0  0
    3.8879    0.8258   19.0463 C   0  0  0  0  0  0  0  0  0  0  0  0
    2.7107    1.6086   19.1594 C   0  0  0  0  0  0  0  0  0  0  0  0
    2.3555    2.1710   20.3549 C   0  0  0  0  0  0  0  0  0  0  0  0
    3.1945    2.0366   21.4817 C   0  0  0  0  0  0  0  0  0  0  0  0
    4.3691    1.3315   21.3895 C   0  0  0  0  0  0  0  0  0  0  0  0
    4.7300    0.6833   20.1710 C   0  0  0  0  0  0  0  0  0  0  0  0
    7.6933    0.6892   21.3352 C   0  0  0  0  0  0  0  0  0  0  0  0
    7.8431    1.6853   20.6621 O   0  0  0  0  0  0  0  0  0  0  0  0
    9.9610    0.3286   22.3460 C   0  0  0  0  0  0  0  0  0  0  0  0
   10.6183   -0.7318   21.7298 C   0  0  0  0  0  0  0  0  0  0  0  0
   11.9846   -0.6787   21.5247 C   0  0  0  0  0  0  0  0  0  0  0  0
   12.7785   -2.0775   20.8743 Cl  0  0  0  0  0  0  0  0  0  0  0  0
   12.7382    0.4529   21.8491 C   0  0  0  0  0  0  0  0  0  0  0  0
   12.0787    1.5342   22.3983 C   0  0  0  0  0  0  0  0  0  0  0  0
   10.7100    1.4661   22.6571 C   0  0  0  0  0  0  0  0  0  0  0  0
   10.0795    2.6501   23.3038 C   0  0  0  0  0  0  0  0  0  0  0  0
   10.6675    3.7172   23.3986 O   0  0  0  0  0  0  0  0  0  0  0  0
    6.2619    3.9858   22.4774 N   0  0  0  0  0  0  0  0  0  0  0  0
  1  2  1  0
  2  3  1  0
  3  4  2  0
  4  5  1  0
  5  6  1  0
  6  7  1  0
  7  8  1  0
  9  8  1  1
  9 10  1  0
 10 11  1  0
 11 12  1  0
 12 13  1  0
 13 14  2  0
 14 15  1  0
 15 16  2  0
 16 17  1  0
 17 18  2  0
 18 19  1  0
 19 20  2  0
 20 21  1  0
 21 22  2  0
 12 23  1  0
 23 24  2  0
  9 25  1  0
 25 26  2  0
 26 27  1  0
 27 28  1  0
 27 29  2  0
 29 30  1  0
 30 31  2  0
 31 32  1  0
 32 33  2  0
  5 34  2  0
 34  2  1  0
 32  7  1  0
 23  9  1  0
 31 25  1  0
 22 13  1  0
 22 17  1  0
M  END
>  <cnnaffinities>  (131) 
[5.9511]

>  <score>  (131) 
5.9511

>  <index>  (131) 
55

>  <Smiles>  (131) 
C(n1c(c(c(C(N2C([C@]3(C(C(N(c4c(nc(c5c(c(c(c(c45)[H])[H])[H])[H])[H])[H])C3=O)([H])[H])([H])[H])c3c(c(Cl)c(c(c3C2=O)[H])[H])[H])([H])[H])([H])[H])n1)[H])[H])([H])([H])[H]

>  <h>  (131) 
<NA>

>  <Training>  (131) 
True

>  <Success>  (131) 
True

>  <enamine_searched>  (131) 
False

>  <enamine_id>  (131) 
nan

$$$$

     RDKit          3D

 36 41  0  0  0  0  0  0  0  0999 V2000
    8.1344   -1.4868   24.2207 C   0  0  0  0  0  0  0  0  0  0  0  0
    8.1595   -1.1517   22.7354 C   0  0  1  0  0  0  0  0  0  0  0  0
    6.7714   -1.2505   22.0817 C   0  0  0  0  0  0  0  0  0  0  0  0
    6.8597   -0.3241   20.9775 N   0  0  0  0  0  0  0  0  0  0  0  0
    5.8862   -0.1706   19.9598 C   0  0  0  0  0  0  0  0  0  0  0  0
    6.0884   -0.7778   18.7485 C   0  0  0  0  0  0  0  0  0  0  0  0
    5.2649   -0.6470   17.6806 N   0  0  0  0  0  0  0  0  0  0  0  0
    4.1991    0.1000   17.8374 C   0  0  0  0  0  0  0  0  0  0  0  0
    3.8587    0.7719   19.0476 C   0  0  0  0  0  0  0  0  0  0  0  0
    2.6799    1.5528   19.1694 C   0  0  0  0  0  0  0  0  0  0  0  0
    2.3605    2.1568   20.3530 C   0  0  0  0  0  0  0  0  0  0  0  0
    3.2264    2.0477   21.4643 C   0  0  0  0  0  0  0  0  0  0  0  0
    4.3837    1.3105   21.3734 C   0  0  0  0  0  0  0  0  0  0  0  0
    4.7239    0.6372   20.1605 C   0  0  0  0  0  0  0  0  0  0  0  0
    7.9380    0.5195   21.0461 C   0  0  0  0  0  0  0  0  0  0  0  0
    8.2010    1.3583   20.2087 O   0  0  0  0  0  0  0  0  0  0  0  0
    8.7067    0.2501   22.3495 C   0  0  1  0  0  0  0  0  0  0  0  0
    8.3420    1.3321   23.3945 C   0  0  0  0  0  0  0  0  0  0  0  0
    8.8620    2.6360   23.0341 N   0  0  0  0  0  0  0  0  0  0  0  0
    7.9987    3.7967   23.1266 C   0  0  0  0  0  0  0  0  0  0  0  0
    7.1896    3.9801   21.8440 C   0  0  0  0  0  0  0  0  0  0  0  0
    6.2494    5.1182   21.8757 N   0  0  0  0  0  0  0  0  0  0  0  0
    5.6269    5.3626   20.5255 C   0  0  0  0  0  0  0  0  0  0  0  0
    4.7400    6.6252   20.5775 C   0  0  0  0  0  0  0  0  0  0  0  0
    4.5652    7.0461   21.9159 O   0  0  0  0  0  0  0  0  0  0  0  0
    4.0532    5.9462   22.6415 C   0  0  0  0  0  0  0  0  0  0  0  0
    5.2122    5.0025   22.9742 C   0  0  0  0  0  0  0  0  0  0  0  0
   10.1693    2.8004   22.6768 C   0  0  0  0  0  0  0  0  0  0  0  0
   10.7230    3.8903   22.6121 O   0  0  0  0  0  0  0  0  0  0  0  0
   10.8954    1.5350   22.3284 C   0  0  0  0  0  0  0  0  0  0  0  0
   12.2616    1.6406   22.0762 C   0  0  0  0  0  0  0  0  0  0  0  0
   12.9758    0.5395   21.6481 C   0  0  0  0  0  0  0  0  0  0  0  0
   12.2869   -0.6543   21.4179 C   0  0  0  0  0  0  0  0  0  0  0  0
   13.1286   -2.0011   20.6983 Cl  0  0  0  0  0  0  0  0  0  0  0  0
   10.9197   -0.7546   21.6099 C   0  0  0  0  0  0  0  0  0  0  0  0
   10.2057    0.3298   22.1314 C   0  0  0  0  0  0  0  0  0  0  0  0
  2  1  1  1
  2  3  1  0
  3  4  1  0
  4  5  1  0
  5  6  2  0
  6  7  1  0
  7  8  2  0
  8  9  1  0
  9 10  2  0
 10 11  1  0
 11 12  2  0
 12 13  1  0
 13 14  2  0
  4 15  1  0
 15 16  2  0
 15 17  1  0
 17 18  1  1
 18 19  1  0
 19 20  1  0
 20 21  1  0
 21 22  1  0
 22 23  1  0
 23 24  1  0
 24 25  1  0
 25 26  1  0
 26 27  1  0
 19 28  1  0
 28 29  2  0
 28 30  1  0
 30 31  2  0
 31 32  1  0
 32 33  2  0
 33 34  1  0
 33 35  1  0
 35 36  2  0
 17  2  1  0
 27 22  1  0
 36 30  1  0
 14  5  1  0
 36 17  1  0
 14  9  1  0
M  CHG  1  22   1
M  END
>  <cnnaffinities>  (132) 
[6.19513, 6.21302, 6.29992, 6.43401, 6.25678]

>  <score>  (132) 
6.19513

>  <index>  (132) 
64

>  <Smiles>  (132) 
C([C@]1(C(N(c2c(nc(c3c(c(c(c(c23)[H])[H])[H])[H])[H])[H])C(=O)[C@]21C(N(C(C([N+]1(C(C(OC(C1([H])[H])([H])[H])([H])[H])([H])[H])[H])([H])[H])([H])[H])C(=O)c1c(c(c(Cl)c(c21)[H])[H])[H])([H])[H])([H])[H])[H])([H])([H])[H]

>  <h>  (132) 
<NA>

>  <Training>  (132) 
True

>  <Success>  (132) 
True

>  <enamine_searched>  (132) 
False

>  <enamine_id>  (132) 
nan

$$$$

     RDKit          3D

 34 39  0  0  0  0  0  0  0  0999 V2000
   13.3041   -2.9847   23.8066 C   0  0  0  0  0  0  0  0  0  0  0  0
   13.0501   -1.6038   24.1416 N   0  0  0  0  0  0  0  0  0  0  0  0
   12.4665   -0.8364   23.1855 C   0  0  0  0  0  0  0  0  0  0  0  0
   12.2964   -1.2168   22.0387 O   0  0  0  0  0  0  0  0  0  0  0  0
   11.9942    0.5298   23.6518 C   0  0  0  0  0  0  0  0  0  0  0  0
   10.5766    0.4759   23.9223 N   0  0  0  0  0  0  0  0  0  0  0  0
   10.1055    0.0261   25.1442 C   0  0  0  0  0  0  0  0  0  0  0  0
   10.8002   -0.5467   25.9689 O   0  0  0  0  0  0  0  0  0  0  0  0
    8.6803    0.4828   25.2282 C   0  0  0  0  0  0  0  0  0  0  0  0
    7.8116    0.4367   26.2922 C   0  0  0  0  0  0  0  0  0  0  0  0
    6.5784    1.1256   26.1914 C   0  0  0  0  0  0  0  0  0  0  0  0
    6.3056    1.9268   25.1130 C   0  0  0  0  0  0  0  0  0  0  0  0
    4.7986    2.7783   25.0151 Cl  0  0  0  0  0  0  0  0  0  0  0  0
    7.3113    2.2432   24.0713 C   0  0  0  0  0  0  0  0  0  0  0  0
    8.3233    1.1179   23.9646 C   0  0  1  0  0  0  0  0  0  0  0  0
    9.5744    1.1220   23.1381 C   0  0  2  0  0  0  0  0  0  0  0  0
    8.4167    0.3058   22.6365 C   0  0  2  0  0  0  0  0  0  0  0  0
    7.6873    0.7745   21.3901 C   0  0  0  0  0  0  0  0  0  0  0  0
    7.7325    1.8528   20.8367 O   0  0  0  0  0  0  0  0  0  0  0  0
    6.8850   -0.2748   20.9720 N   0  0  0  0  0  0  0  0  0  0  0  0
    5.9094   -0.1403   19.9542 C   0  0  0  0  0  0  0  0  0  0  0  0
    6.0768   -0.7949   18.7602 C   0  0  0  0  0  0  0  0  0  0  0  0
    5.2547   -0.6637   17.6933 N   0  0  0  0  0  0  0  0  0  0  0  0
    4.1954    0.0982   17.8428 C   0  0  0  0  0  0  0  0  0  0  0  0
    3.8560    0.7668   19.0543 C   0  0  0  0  0  0  0  0  0  0  0  0
    2.6673    1.5359   19.1843 C   0  0  0  0  0  0  0  0  0  0  0  0
    2.3437    2.1291   20.3744 C   0  0  0  0  0  0  0  0  0  0  0  0
    3.2057    1.9987   21.4891 C   0  0  0  0  0  0  0  0  0  0  0  0
    4.3653    1.2691   21.3868 C   0  0  0  0  0  0  0  0  0  0  0  0
    4.7272    0.6433   20.1583 C   0  0  0  0  0  0  0  0  0  0  0  0
    7.1818   -1.5332   21.6310 C   0  0  0  0  0  0  0  0  0  0  0  0
    8.3319   -1.1704   22.5449 C   0  0  0  0  0  0  0  0  0  0  0  0
    9.0916   -2.0997   23.1176 C   0  0  0  0  0  0  0  0  0  0  0  0
    8.8168   -3.4065   22.9529 F   0  0  0  0  0  0  0  0  0  0  0  0
  1  2  1  0
  2  3  1  0
  3  4  2  0
  3  5  1  0
  5  6  1  0
  6  7  1  0
  7  8  2  0
  7  9  1  0
  9 10  2  0
 10 11  1  0
 11 12  2  0
 12 13  1  0
 12 14  1  0
 15 14  1  1
 15 16  1  0
 16 17  1  0
 17 18  1  6
 18 19  2  0
 18 20  1  0
 20 21  1  0
 21 22  2  0
 22 23  1  0
 23 24  2  0
 24 25  1  0
 25 26  2  0
 26 27  1  0
 27 28  2  0
 28 29  1  0
 29 30  2  0
 20 31  1  0
 31 32  1  0
 32 33  2  0
 33 34  1  0
 16  6  1  1
 32 17  1  0
 15  9  1  0
 30 21  1  0
 17 15  1  0
 30 25  1  0
M  END
>  <cnnaffinities>  (133) 
[5.9545]

>  <score>  (133) 
5.9545

>  <index>  (133) 
65

>  <Smiles>  (133) 
C(N(C(=O)C(N1C(=O)C2=C(C(=C(Cl)C([C@]32[C@@]1([C@@]13C(=O)N(c2c(nc(c3c(c(c(c(c23)[H])[H])[H])[H])[H])[H])C(/C/1=C(\F)/[H])([H])[H])[H])([H])[H])[H])[H])([H])[H])[H])([H])([H])[H]

>  <h>  (133) 
<NA>

>  <Training>  (133) 
True

>  <Success>  (133) 
True

>  <enamine_searched>  (133) 
False

>  <enamine_id>  (133) 
nan

$$$$

     RDKit          3D

 35 40  0  0  0  0  0  0  0  0999 V2000
   -5.7402    4.0654  -22.3565 C   0  0  0  0  0  0  0  0  0  0  0  0
   -6.8364    3.5294  -23.2189 C   0  0  0  0  0  0  0  0  0  0  0  0
   -6.7735    2.4117  -24.0951 C   0  0  0  0  0  0  0  0  0  0  0  0
   -8.0290    2.3167  -24.6010 C   0  0  0  0  0  0  0  0  0  0  0  0
   -8.6821    1.3114  -25.5009 C   0  0  0  0  0  0  0  0  0  0  0  0
   -9.3938    0.2922  -24.7464 N   0  0  0  0  0  0  0  0  0  0  0  0
   -8.7559   -0.9816  -24.4654 C   0  0  0  0  0  0  0  0  0  0  0  0
   -8.9709   -1.4612  -23.0085 C   0  0  2  0  0  0  0  0  0  0  0  0
   -8.2139   -0.5590  -22.0122 C   0  0  0  0  0  0  0  0  0  0  0  0
   -8.3514    0.6358  -21.8805 O   0  0  0  0  0  0  0  0  0  0  0  0
   -7.3738   -1.3412  -21.2475 N   0  0  0  0  0  0  0  0  0  0  0  0
   -6.5929   -0.8084  -20.1960 C   0  0  0  0  0  0  0  0  0  0  0  0
   -6.8975   -1.0706  -18.8845 C   0  0  0  0  0  0  0  0  0  0  0  0
   -6.2246   -0.5649  -17.8186 N   0  0  0  0  0  0  0  0  0  0  0  0
   -5.1924    0.2076  -18.0785 C   0  0  0  0  0  0  0  0  0  0  0  0
   -4.7448    0.5270  -19.3939 C   0  0  0  0  0  0  0  0  0  0  0  0
   -3.6118    1.3517  -19.6264 C   0  0  0  0  0  0  0  0  0  0  0  0
   -3.1948    1.6177  -20.9037 C   0  0  0  0  0  0  0  0  0  0  0  0
   -3.8889    1.0777  -22.0076 C   0  0  0  0  0  0  0  0  0  0  0  0
   -4.9905    0.2831  -21.8145 C   0  0  0  0  0  0  0  0  0  0  0  0
   -5.4539   -0.0008  -20.4965 C   0  0  0  0  0  0  0  0  0  0  0  0
   -7.6371   -2.7527  -21.3874 C   0  0  0  0  0  0  0  0  0  0  0  0
   -8.3705   -2.8763  -22.7380 C   0  0  2  0  0  0  0  0  0  0  0  0
   -7.4666   -3.4598  -23.8260 C   0  0  0  0  0  0  0  0  0  0  0  0
  -10.4702   -1.3799  -22.7416 C   0  0  0  0  0  0  0  0  0  0  0  0
  -11.0987   -2.2603  -21.8631 C   0  0  0  0  0  0  0  0  0  0  0  0
  -12.4711   -2.2000  -21.7190 C   0  0  0  0  0  0  0  0  0  0  0  0
  -13.0586   -3.1596  -20.9868 F   0  0  0  0  0  0  0  0  0  0  0  0
  -13.2494   -1.1726  -22.2428 C   0  0  0  0  0  0  0  0  0  0  0  0
  -12.6105   -0.2469  -23.0460 C   0  0  0  0  0  0  0  0  0  0  0  0
  -11.2501   -0.3791  -23.3310 C   0  0  0  0  0  0  0  0  0  0  0  0
  -10.6512    0.5930  -24.2956 C   0  0  0  0  0  0  0  0  0  0  0  0
  -11.2617    1.5932  -24.6366 O   0  0  0  0  0  0  0  0  0  0  0  0
   -8.7878    3.2963  -24.0955 O   0  0  0  0  0  0  0  0  0  0  0  0
   -8.0341    4.0690  -23.2382 N   0  0  0  0  0  0  0  0  0  0  0  0
  1  2  1  0
  2  3  1  0
  3  4  2  0
  4  5  1  0
  5  6  1  0
  6  7  1  0
  8  7  1  6
  8  9  1  0
  9 10  2  0
  9 11  1  0
 11 12  1  0
 12 13  2  0
 13 14  1  0
 14 15  2  0
 15 16  1  0
 16 17  2  0
 17 18  1  0
 18 19  2  0
 19 20  1  0
 20 21  2  0
 11 22  1  0
 22 23  1  0
 23 24  1  6
  8 25  1  0
 25 26  2  0
 26 27  1  0
 27 28  1  0
 27 29  2  0
 29 30  1  0
 30 31  2  0
 31 32  1  0
 32 33  2  0
  4 34  1  0
 34 35  1  0
 35  2  2  0
 32  6  1  0
 23  8  1  0
 31 25  1  0
 21 12  1  0
 21 16  1  0
M  END
>  <cnnaffinities>  (134) 
[6.42405]

>  <score>  (134) 
6.42405

>  <index>  (134) 
67

>  <Smiles>  (134) 
C(c1c(c(C(N2C([C@@]3(C(=O)N(c4c(nc(c5c(c(c(c(c45)[H])[H])[H])[H])[H])[H])C([C@@]3(C([H])([H])[H])[H])([H])[H])c3c(c(F)c(c(c3C2=O)[H])[H])[H])([H])[H])([H])[H])on1)[H])([H])([H])[H]

>  <h>  (134) 
<NA>

>  <Training>  (134) 
True

>  <Success>  (134) 
True

>  <enamine_searched>  (134) 
False

>  <enamine_id>  (134) 
nan

$$$$

     RDKit          3D

 25 28  0  0  0  0  0  0  0  0999 V2000
    5.3166   -2.0058   21.8448 O   0  0  0  0  0  0  0  0  0  0  0  0
    6.4487   -1.5554   21.9060 C   0  0  0  0  0  0  0  0  0  0  0  0
    6.8718   -0.3514   21.0668 C   0  0  0  0  0  0  0  0  0  0  0  0
    5.9154   -0.1152   19.9539 C   0  0  0  0  0  0  0  0  0  0  0  0
    6.1221   -0.7295   18.7521 C   0  0  0  0  0  0  0  0  0  0  0  0
    5.3195   -0.6107   17.6662 N   0  0  0  0  0  0  0  0  0  0  0  0
    4.2477    0.1355   17.8188 C   0  0  0  0  0  0  0  0  0  0  0  0
    3.8843    0.7903   19.0287 C   0  0  0  0  0  0  0  0  0  0  0  0
    2.7199    1.5861   19.1500 C   0  0  0  0  0  0  0  0  0  0  0  0
    2.3920    2.1614   20.3496 C   0  0  0  0  0  0  0  0  0  0  0  0
    3.2186    1.9778   21.4809 C   0  0  0  0  0  0  0  0  0  0  0  0
    4.3647    1.2365   21.3857 C   0  0  0  0  0  0  0  0  0  0  0  0
    4.7318    0.6404   20.1493 C   0  0  0  0  0  0  0  0  0  0  0  0
    7.4197   -2.1003   22.6975 N   0  0  0  0  0  0  0  0  0  0  0  0
    7.2977   -3.5120   23.0555 C   0  0  0  0  0  0  0  0  0  0  0  0
    7.7170   -3.7396   24.5054 C   0  0  0  0  0  0  0  0  0  0  0  0
    9.0491   -3.0549   24.8761 C   0  0  1  0  0  0  0  0  0  0  0  0
   10.2293   -3.8434   24.2713 C   0  0  0  0  0  0  0  0  0  0  0  0
   11.6049   -3.2152   24.5178 C   0  0  0  0  0  0  0  0  0  0  0  0
   11.6349   -1.7439   24.1460 C   0  0  0  0  0  0  0  0  0  0  0  0
   11.6247   -1.6525   22.7662 F   0  0  0  0  0  0  0  0  0  0  0  0
   12.8254   -1.1880   24.5368 F   0  0  0  0  0  0  0  0  0  0  0  0
   10.4693   -0.9447   24.7144 C   0  0  0  0  0  0  0  0  0  0  0  0
    9.0986   -1.5834   24.4053 C   0  0  1  0  0  0  0  0  0  0  0  0
    8.7352   -1.5034   22.9168 C   0  0  0  0  0  0  0  0  0  0  0  0
  1  2  2  0
  2  3  1  0
  3  4  1  0
  4  5  2  0
  5  6  1  0
  6  7  2  0
  7  8  1  0
  8  9  2  0
  9 10  1  0
 10 11  2  0
 11 12  1  0
 12 13  2  0
  2 14  1  0
 14 15  1  0
 15 16  1  0
 17 16  1  6
 17 18  1  0
 18 19  1  0
 19 20  1  0
 20 21  1  0
 20 22  1  0
 20 23  1  0
 24 23  1  6
 24 25  1  0
 13  4  1  0
 25 14  1  0
 13  8  1  0
 24 17  1  0
M  END
>  <cnnaffinities>  (135) 
[5.82527, 5.78101, 5.78599, 5.38251, 5.38252, 5.86894, 5.56959, 5.56957, 5.67149, 5.47461]

>  <score>  (135) 
5.82527

>  <index>  (135) 
66

>  <Smiles>  (135) 
O=C(C(c1c(nc(c2c(c(c(c(c12)[H])[H])[H])[H])[H])[H])([H])[H])N1C(C([C@]2(C(C(C(F)(F)C([C@]2(C1([H])[H])[H])([H])[H])([H])[H])([H])[H])[H])([H])[H])([H])[H]

>  <h>  (135) 
<NA>

>  <Training>  (135) 
True

>  <Success>  (135) 
True

>  <enamine_searched>  (135) 
False

>  <enamine_id>  (135) 
nan

$$$$

     RDKit          3D

 38 43  0  0  0  0  0  0  0  0999 V2000
    5.5150    4.7939   22.1795 C   0  0  0  0  0  0  0  0  0  0  0  0
    6.7723    4.2493   21.6350 N   0  0  0  0  0  0  0  0  0  0  0  0
    7.9611    4.7736   22.3572 C   0  0  0  0  0  0  0  0  0  0  0  0
    8.2870    4.0426   23.6629 C   0  0  0  0  0  0  0  0  0  0  0  0
    8.8609    2.7259   23.4212 N   0  0  0  0  0  0  0  0  0  0  0  0
    8.0993    1.5256   23.7183 C   0  0  0  0  0  0  0  0  0  0  0  0
    8.3595    0.3892   22.6955 C   0  0  2  0  0  0  0  0  0  0  0  0
    7.5913    0.7462   21.4133 C   0  0  0  0  0  0  0  0  0  0  0  0
    7.5471    1.8401   20.8760 O   0  0  0  0  0  0  0  0  0  0  0  0
    6.8735   -0.3297   20.9802 N   0  0  0  0  0  0  0  0  0  0  0  0
    5.9073   -0.1447   19.9530 C   0  0  0  0  0  0  0  0  0  0  0  0
    6.0889   -0.7675   18.7487 C   0  0  0  0  0  0  0  0  0  0  0  0
    5.2641   -0.6261   17.6890 N   0  0  0  0  0  0  0  0  0  0  0  0
    4.2093    0.1364   17.8487 C   0  0  0  0  0  0  0  0  0  0  0  0
    3.8793    0.8062   19.0611 C   0  0  0  0  0  0  0  0  0  0  0  0
    2.7050    1.5929   19.1879 C   0  0  0  0  0  0  0  0  0  0  0  0
    2.3815    2.1773   20.3808 C   0  0  0  0  0  0  0  0  0  0  0  0
    3.2373    2.0270   21.4947 C   0  0  0  0  0  0  0  0  0  0  0  0
    4.4021    1.3117   21.3838 C   0  0  0  0  0  0  0  0  0  0  0  0
    4.7518    0.6683   20.1601 C   0  0  0  0  0  0  0  0  0  0  0  0
    6.6908   -1.3461   22.0046 C   0  0  0  0  0  0  0  0  0  0  0  0
    7.7124   -0.9809   23.1002 C   0  0  2  0  0  0  0  0  0  0  0  0
    7.0916   -1.0740   24.4991 C   0  0  0  0  0  0  0  0  0  0  0  0
    5.9608   -0.2290   24.6075 O   0  0  0  0  0  0  0  0  0  0  0  0
    5.4511   -0.1588   25.9207 C   0  0  0  0  0  0  0  0  0  0  0  0
    4.2056    0.6959   25.9858 C   0  0  0  0  0  0  0  0  0  0  0  0
    3.7521    0.7100   27.2885 F   0  0  0  0  0  0  0  0  0  0  0  0
    3.1716    0.7185   24.9179 C   0  0  0  0  0  0  0  0  0  0  0  0
    4.0101    1.9506   25.2099 C   0  0  0  0  0  0  0  0  0  0  0  0
    9.8621    0.2825   22.4241 C   0  0  0  0  0  0  0  0  0  0  0  0
   10.4252   -0.8513   21.8163 C   0  0  0  0  0  0  0  0  0  0  0  0
   11.7839   -0.9079   21.5635 C   0  0  0  0  0  0  0  0  0  0  0  0
   12.4441   -2.2456   20.6725 Cl  0  0  0  0  0  0  0  0  0  0  0  0
   12.6441    0.1151   21.9599 C   0  0  0  0  0  0  0  0  0  0  0  0
   12.0964    1.2530   22.5096 C   0  0  0  0  0  0  0  0  0  0  0  0
   10.7171    1.3570   22.6853 C   0  0  0  0  0  0  0  0  0  0  0  0
   10.1830    2.6879   23.0989 C   0  0  0  0  0  0  0  0  0  0  0  0
   10.9014    3.6826   23.1190 O   0  0  0  0  0  0  0  0  0  0  0  0
  1  2  1  0
  2  3  1  0
  3  4  1  0
  4  5  1  0
  5  6  1  0
  7  6  1  1
  7  8  1  0
  8  9  2  0
  8 10  1  0
 10 11  1  0
 11 12  2  0
 12 13  1  0
 13 14  2  0
 14 15  1  0
 15 16  2  0
 16 17  1  0
 17 18  2  0
 18 19  1  0
 19 20  2  0
 10 21  1  0
 21 22  1  0
 22 23  1  1
 23 24  1  0
 24 25  1  0
 25 26  1  0
 26 27  1  0
 26 28  1  0
 28 29  1  0
  7 30  1  0
 30 31  2  0
 31 32  1  0
 32 33  1  0
 32 34  2  0
 34 35  1  0
 35 36  2  0
 36 37  1  0
 37 38  2  0
 37  5  1  0
 22  7  1  0
 29 26  1  0
 36 30  1  0
 20 11  1  0
 20 15  1  0
M  CHG  1   2   1
M  END
>  <cnnaffinities>  (136) 
[6.53424, 6.64635, 6.5586, 6.5946]

>  <score>  (136) 
6.53424

>  <index>  (136) 
67

>  <Smiles>  (136) 
C([N+](C(C(N1C([C@@]2(C(=O)N(c3c(nc(c4c(c(c(c(c34)[H])[H])[H])[H])[H])[H])C([C@@]2(C(OC(C2(F)C(C2([H])[H])([H])[H])([H])[H])([H])[H])[H])([H])[H])c2c(c(Cl)c(c(c2C1=O)[H])[H])[H])([H])[H])([H])[H])([H])[H])([H])[H])([H])([H])[H]

>  <h>  (136) 
<NA>

>  <Training>  (136) 
True

>  <Success>  (136) 
True

>  <enamine_searched>  (136) 
False

>  <enamine_id>  (136) 
nan

$$$$

     RDKit          3D

 34 39  0  0  0  0  0  0  0  0999 V2000
   -7.9836    0.8543  -21.6132 O   0  0  0  0  0  0  0  0  0  0  0  0
   -8.0194   -0.3050  -21.9764 C   0  0  0  0  0  0  0  0  0  0  0  0
   -7.4327   -1.4416  -21.1361 C   0  0  0  0  0  0  0  0  0  0  0  0
   -6.5774   -0.8888  -20.0574 C   0  0  0  0  0  0  0  0  0  0  0  0
   -6.9089   -1.0689  -18.7425 C   0  0  0  0  0  0  0  0  0  0  0  0
   -6.2437   -0.5367  -17.6903 N   0  0  0  0  0  0  0  0  0  0  0  0
   -5.2025    0.2167  -17.9808 C   0  0  0  0  0  0  0  0  0  0  0  0
   -4.7525    0.4887  -19.3039 C   0  0  0  0  0  0  0  0  0  0  0  0
   -3.6500    1.3386  -19.5644 C   0  0  0  0  0  0  0  0  0  0  0  0
   -3.2622    1.6154  -20.8478 C   0  0  0  0  0  0  0  0  0  0  0  0
   -3.9637    1.0513  -21.9349 C   0  0  0  0  0  0  0  0  0  0  0  0
   -5.0330    0.2221  -21.7097 C   0  0  0  0  0  0  0  0  0  0  0  0
   -5.4581   -0.0752  -20.3824 C   0  0  0  0  0  0  0  0  0  0  0  0
   -8.5263   -0.6796  -23.2005 N   0  0  0  0  0  0  0  0  0  0  0  0
   -8.5687    0.3608  -24.2262 C   0  0  0  0  0  0  0  0  0  0  0  0
   -7.8600   -0.0722  -25.4850 C   0  0  0  0  0  0  0  0  0  0  0  0
   -6.6890   -0.8246  -25.4512 C   0  0  0  0  0  0  0  0  0  0  0  0
   -6.0985   -1.2526  -26.6334 C   0  0  0  0  0  0  0  0  0  0  0  0
   -6.6525   -0.9244  -27.8637 C   0  0  0  0  0  0  0  0  0  0  0  0
   -7.8157   -0.1713  -27.8890 C   0  0  0  0  0  0  0  0  0  0  0  0
   -8.4931    0.2796  -29.4243 Cl  0  0  0  0  0  0  0  0  0  0  0  0
   -8.4329    0.2325  -26.7113 C   0  0  0  0  0  0  0  0  0  0  0  0
   -9.3121   -1.8994  -23.3705 C   0  0  2  0  0  0  0  0  0  0  0  0
   -8.5936   -3.2746  -23.4930 C   0  0  0  0  0  0  0  0  0  0  0  0
   -9.6596   -4.1772  -24.1767 C   0  0  0  0  0  0  0  0  0  0  0  0
  -10.8634   -3.2528  -24.2742 C   0  0  2  0  0  0  0  0  0  0  0  0
  -10.2136   -1.9328  -24.6180 C   0  0  0  0  0  0  0  0  0  0  0  0
  -11.3478   -3.0463  -22.8266 N   0  0  2  0  0  0  0  0  0  0  0  0
  -12.7445   -2.6238  -22.5704 C   0  0  0  0  0  0  0  0  0  0  0  0
  -13.2757   -1.5804  -23.5345 C   0  0  0  0  0  0  0  0  0  0  0  0
  -14.7784   -1.4404  -23.4242 C   0  0  0  0  0  0  0  0  0  0  0  0
  -14.6625   -0.2483  -22.6310 O   0  0  0  0  0  0  0  0  0  0  0  0
  -13.3051   -0.1110  -23.0892 C   0  0  0  0  0  0  0  0  0  0  0  0
  -10.3573   -2.0779  -22.2544 C   0  0  0  0  0  0  0  0  0  0  0  0
  1  2  2  0
  2  3  1  0
  3  4  1  0
  4  5  2  0
  5  6  1  0
  6  7  2  0
  7  8  1  0
  8  9  2  0
  9 10  1  0
 10 11  2  0
 11 12  1  0
 12 13  2  0
  2 14  1  0
 14 15  1  0
 15 16  1  0
 16 17  2  0
 17 18  1  0
 18 19  2  0
 19 20  1  0
 20 21  1  0
 20 22  2  0
 23 14  1  1
 23 24  1  0
 24 25  1  0
 26 25  1  1
 26 27  1  0
 26 28  1  0
 28 29  1  6
 29 30  1  0
 30 31  1  0
 31 32  1  0
 32 33  1  0
 28 34  1  0
 13  4  1  0
 22 16  1  0
 27 23  1  0
 33 30  1  0
 13  8  1  0
 34 23  1  0
M  CHG  1  28   1
M  END
>  <cnnaffinities>  (137) 
[6.05603, 5.97339, 6.02527, 6.0841]

>  <score>  (137) 
6.05603

>  <index>  (137) 
8

>  <Smiles>  (137) 
O=C(C(c1c(nc(c2c(c(c(c(c12)[H])[H])[H])[H])[H])[H])([H])[H])N(C(c1c(c(c(c(Cl)c1[H])[H])[H])[H])([H])[H])[C@]12C(C([C@](C1([H])[H])([N@+](C(C1(C(OC1([H])[H])([H])[H])[H])([H])[H])(C2([H])[H])[H])[H])([H])[H])([H])[H]

>  <h>  (137) 
<NA>

>  <Training>  (137) 
True

>  <Success>  (137) 
True

>  <enamine_searched>  (137) 
False

>  <enamine_id>  (137) 
nan

$$$$

     RDKit          3D

 35 40  0  0  0  0  0  0  0  0999 V2000
    4.7914    4.8847   20.4961 C   0  0  0  0  0  0  0  0  0  0  0  0
    5.9397    4.7418   21.4376 C   0  0  0  0  0  0  0  0  0  0  0  0
    6.1538    3.9567   22.4564 N   0  0  0  0  0  0  0  0  0  0  0  0
    7.3922    4.3770   22.8948 C   0  0  0  0  0  0  0  0  0  0  0  0
    8.1060    3.7562   24.0615 C   0  0  0  0  0  0  0  0  0  0  0  0
    8.8364    2.5701   23.6524 N   0  0  0  0  0  0  0  0  0  0  0  0
    8.2464    1.2574   23.8274 C   0  0  0  0  0  0  0  0  0  0  0  0
    8.4672    0.3214   22.6111 C   0  0  2  0  0  0  0  0  0  0  0  0
    7.6424    0.7605   21.3851 C   0  0  0  0  0  0  0  0  0  0  0  0
    7.7011    1.8208   20.8051 O   0  0  0  0  0  0  0  0  0  0  0  0
    6.8106   -0.2795   21.0274 N   0  0  0  0  0  0  0  0  0  0  0  0
    5.8791   -0.1479   19.9765 C   0  0  0  0  0  0  0  0  0  0  0  0
    6.0765   -0.7857   18.7797 C   0  0  0  0  0  0  0  0  0  0  0  0
    5.2709   -0.6504   17.6989 N   0  0  0  0  0  0  0  0  0  0  0  0
    4.2108    0.1141   17.8345 C   0  0  0  0  0  0  0  0  0  0  0  0
    3.8606    0.7854   19.0414 C   0  0  0  0  0  0  0  0  0  0  0  0
    2.6850    1.5715   19.1592 C   0  0  0  0  0  0  0  0  0  0  0  0
    2.3446    2.1491   20.3511 C   0  0  0  0  0  0  0  0  0  0  0  0
    3.1913    2.0168   21.4715 C   0  0  0  0  0  0  0  0  0  0  0  0
    4.3527    1.2930   21.3792 C   0  0  0  0  0  0  0  0  0  0  0  0
    4.7134    0.6529   20.1599 C   0  0  0  0  0  0  0  0  0  0  0  0
    7.1829   -1.5444   21.6135 C   0  0  0  0  0  0  0  0  0  0  0  0
    7.9690   -1.1417   22.8788 C   0  0  2  0  0  0  0  0  0  0  0  0
    7.1567   -1.3708   24.1570 C   0  0  0  0  0  0  0  0  0  0  0  0
    9.9492    0.3932   22.2538 C   0  0  0  0  0  0  0  0  0  0  0  0
   10.6050   -0.6970   21.6707 C   0  0  0  0  0  0  0  0  0  0  0  0
   11.9790   -0.6621   21.5217 C   0  0  0  0  0  0  0  0  0  0  0  0
   12.6040   -1.7916   21.1519 F   0  0  0  0  0  0  0  0  0  0  0  0
   12.7393    0.4807   21.7545 C   0  0  0  0  0  0  0  0  0  0  0  0
   12.0685    1.5940   22.2234 C   0  0  0  0  0  0  0  0  0  0  0  0
   10.7011    1.5469   22.4923 C   0  0  0  0  0  0  0  0  0  0  0  0
   10.0782    2.7547   23.1061 C   0  0  0  0  0  0  0  0  0  0  0  0
   10.6726    3.8202   23.1632 O   0  0  0  0  0  0  0  0  0  0  0  0
    7.8972    5.3610   22.2129 N   0  0  0  0  0  0  0  0  0  0  0  0
    6.9493    5.6057   21.2383 O   0  0  0  0  0  0  0  0  0  0  0  0
  1  2  1  0
  2  3  2  0
  3  4  1  0
  4  5  1  0
  5  6  1  0
  6  7  1  0
  8  7  1  1
  8  9  1  0
  9 10  2  0
  9 11  1  0
 11 12  1  0
 12 13  2  0
 13 14  1  0
 14 15  2  0
 15 16  1  0
 16 17  2  0
 17 18  1  0
 18 19  2  0
 19 20  1  0
 20 21  2  0
 11 22  1  0
 22 23  1  0
 23 24  1  1
  8 25  1  0
 25 26  2  0
 26 27  1  0
 27 28  1  0
 27 29  2  0
 29 30  1  0
 30 31  2  0
 31 32  1  0
 32 33  2  0
  4 34  2  0
 34 35  1  0
 35  2  1  0
 32  6  1  0
 23  8  1  0
 31 25  1  0
 21 12  1  0
 21 16  1  0
M  END
>  <cnnaffinities>  (138) 
[6.17938, 6.15326, 6.1755, 6.15245, 6.21956]

>  <score>  (138) 
6.17938

>  <index>  (138) 
68

>  <Smiles>  (138) 
C(c1nc(C(N2C([C@@]3(C(=O)N(c4c(nc(c5c(c(c(c(c45)[H])[H])[H])[H])[H])[H])C([C@@]3(C([H])([H])[H])[H])([H])[H])c3c(c(F)c(c(c3C2=O)[H])[H])[H])([H])[H])([H])[H])no1)([H])([H])[H]

>  <h>  (138) 
<NA>

>  <Training>  (138) 
True

>  <Success>  (138) 
True

>  <enamine_searched>  (138) 
False

>  <enamine_id>  (138) 
nan

$$$$

     RDKit          3D

 36 40  0  0  0  0  0  0  0  0999 V2000
   -9.9541   -6.3859  -28.1253 C   0  0  0  0  0  0  0  0  0  0  0  0
  -10.3143   -5.3795  -27.3393 C   0  0  0  0  0  0  0  0  0  0  0  0
   -9.3276   -4.7025  -26.4723 C   0  0  0  0  0  0  0  0  0  0  0  0
   -8.1396   -4.9627  -26.4799 O   0  0  0  0  0  0  0  0  0  0  0  0
   -9.8661   -3.6845  -25.6732 N   0  0  0  0  0  0  0  0  0  0  0  0
  -11.0126   -4.0136  -24.8299 C   0  0  0  0  0  0  0  0  0  0  0  0
  -11.5029   -2.8127  -24.0493 C   0  0  0  0  0  0  0  0  0  0  0  0
  -10.3427   -2.1846  -23.3009 C   0  0  0  0  0  0  0  0  0  0  0  0
   -9.2577   -1.7871  -24.2780 C   0  0  0  0  0  0  0  0  0  0  0  0
   -9.0602   -2.5598  -25.4356 C   0  0  0  0  0  0  0  0  0  0  0  0
   -8.1128   -2.1780  -26.3972 C   0  0  0  0  0  0  0  0  0  0  0  0
   -7.3296   -1.0570  -26.2052 C   0  0  0  0  0  0  0  0  0  0  0  0
   -7.4798   -0.3121  -25.0448 C   0  0  0  0  0  0  0  0  0  0  0  0
   -8.4367   -0.6834  -24.1105 C   0  0  0  0  0  0  0  0  0  0  0  0
   -8.5755    0.2624  -22.8869 N   0  0  1  0  0  0  0  0  0  0  0  0
   -9.7134    1.3256  -23.0485 C   0  0  0  0  0  0  0  0  0  0  0  0
   -9.4324    2.2157  -24.2221 C   0  0  0  0  0  0  0  0  0  0  0  0
   -8.5738    3.2993  -24.0459 C   0  0  0  0  0  0  0  0  0  0  0  0
   -8.2862    4.1527  -25.1018 C   0  0  0  0  0  0  0  0  0  0  0  0
   -8.8046    3.9174  -26.3663 C   0  0  0  0  0  0  0  0  0  0  0  0
   -9.6181    2.8109  -26.5447 C   0  0  0  0  0  0  0  0  0  0  0  0
  -10.1218    2.4396  -28.1600 Cl  0  0  0  0  0  0  0  0  0  0  0  0
   -9.9742    1.9823  -25.4887 C   0  0  0  0  0  0  0  0  0  0  0  0
   -8.5754   -0.3306  -21.5594 C   0  0  0  0  0  0  0  0  0  0  0  0
   -9.4192   -0.0126  -20.7604 O   0  0  0  0  0  0  0  0  0  0  0  0
   -7.4642   -1.3382  -21.2567 C   0  0  0  0  0  0  0  0  0  0  0  0
   -6.5673   -0.8176  -20.1590 C   0  0  0  0  0  0  0  0  0  0  0  0
   -6.8815   -1.0377  -18.8417 C   0  0  0  0  0  0  0  0  0  0  0  0
   -6.1950   -0.5481  -17.7744 N   0  0  0  0  0  0  0  0  0  0  0  0
   -5.1573    0.2103  -18.0454 C   0  0  0  0  0  0  0  0  0  0  0  0
   -4.7131    0.5232  -19.3610 C   0  0  0  0  0  0  0  0  0  0  0  0
   -3.5976    1.3658  -19.6026 C   0  0  0  0  0  0  0  0  0  0  0  0
   -3.2092    1.6597  -20.8811 C   0  0  0  0  0  0  0  0  0  0  0  0
   -3.9144    1.1160  -21.9789 C   0  0  0  0  0  0  0  0  0  0  0  0
   -4.9964    0.2953  -21.7723 C   0  0  0  0  0  0  0  0  0  0  0  0
   -5.4322   -0.0112  -20.4554 C   0  0  0  0  0  0  0  0  0  0  0  0
  1  2  2  0
  2  3  1  0
  3  4  2  0
  3  5  1  0
  5  6  1  0
  6  7  1  0
  7  8  1  0
  8  9  1  0
  9 10  2  0
 10 11  1  0
 11 12  2  0
 12 13  1  0
 13 14  2  0
 14 15  1  0
 15 16  1  6
 16 17  1  0
 17 18  2  0
 18 19  1  0
 19 20  2  0
 20 21  1  0
 21 22  1  0
 21 23  2  0
 15 24  1  0
 24 25  2  0
 24 26  1  0
 26 27  1  0
 27 28  2  0
 28 29  1  0
 29 30  2  0
 30 31  1  0
 31 32  2  0
 32 33  1  0
 33 34  2  0
 34 35  1  0
 35 36  2  0
 10  5  1  0
 23 17  1  0
 36 27  1  0
 14  9  1  0
 36 31  1  0
M  CHG  1  15   1
M  END
>  <cnnaffinities>  (139) 
[6.03533, 6.10419, 6.01301, 6.20718]

>  <score>  (139) 
6.03533

>  <index>  (139) 
69

>  <Smiles>  (139) 
C(=C(C(=O)N1C(C(C(c2c1c(c(c(c2[N@@+](C(c1c(c(c(c(Cl)c1[H])[H])[H])[H])([H])[H])(C(=O)C(c1c(nc(c2c(c(c(c(c12)[H])[H])[H])[H])[H])[H])([H])[H])[H])[H])[H])[H])([H])[H])([H])[H])([H])[H])[H])([H])[H]

>  <h>  (139) 
<NA>

>  <Training>  (139) 
True

>  <Success>  (139) 
True

>  <enamine_searched>  (139) 
False

>  <enamine_id>  (139) 
nan

$$$$

     RDKit          3D

 24 26  0  0  0  0  0  0  0  0999 V2000
  -10.5541   -4.9063  -27.1509 C   0  0  0  0  0  0  0  0  0  0  0  0
   -9.9596   -6.2095  -26.6179 C   0  0  0  0  0  0  0  0  0  0  0  0
  -10.9786   -7.3215  -26.8387 C   0  0  0  0  0  0  0  0  0  0  0  0
   -9.6080   -6.1855  -25.1250 C   0  0  0  0  0  0  0  0  0  0  0  0
   -8.4474   -5.2963  -24.6317 C   0  0  0  0  0  0  0  0  0  0  0  0
   -7.2879   -5.3636  -25.6399 C   0  0  0  0  0  0  0  0  0  0  0  0
   -8.9295   -3.8289  -24.4002 C   0  0  0  0  0  0  0  0  0  0  0  0
   -8.8362   -3.4192  -22.9250 C   0  0  0  0  0  0  0  0  0  0  0  0
   -7.4969   -3.6969  -22.3936 N   0  0  0  0  0  0  0  0  0  0  0  0
   -6.7550   -2.8470  -21.6322 C   0  0  0  0  0  0  0  0  0  0  0  0
   -5.6318   -3.1361  -21.2435 O   0  0  0  0  0  0  0  0  0  0  0  0
   -7.4052   -1.5215  -21.2513 C   0  0  0  0  0  0  0  0  0  0  0  0
   -6.6223   -0.8487  -20.1792 C   0  0  0  0  0  0  0  0  0  0  0  0
   -6.9477   -1.0820  -18.8707 C   0  0  0  0  0  0  0  0  0  0  0  0
   -6.2830   -0.5837  -17.7964 N   0  0  0  0  0  0  0  0  0  0  0  0
   -5.2389    0.1681  -18.0602 C   0  0  0  0  0  0  0  0  0  0  0  0
   -4.7683    0.4691  -19.3692 C   0  0  0  0  0  0  0  0  0  0  0  0
   -3.6461    1.3051  -19.6016 C   0  0  0  0  0  0  0  0  0  0  0  0
   -3.2412    1.5872  -20.8761 C   0  0  0  0  0  0  0  0  0  0  0  0
   -3.9239    1.0318  -21.9835 C   0  0  0  0  0  0  0  0  0  0  0  0
   -5.0056    0.2096  -21.7884 C   0  0  0  0  0  0  0  0  0  0  0  0
   -5.4719   -0.0689  -20.4741 C   0  0  0  0  0  0  0  0  0  0  0  0
   -6.9498   -5.0381  -22.5707 C   0  0  0  0  0  0  0  0  0  0  0  0
   -7.9630   -5.9121  -23.2868 C   0  0  0  0  0  0  0  0  0  0  0  0
  1  2  1  0
  2  3  1  0
  2  4  1  0
  4  5  1  0
  5  6  1  0
  5  7  1  0
  7  8  1  0
  8  9  1  0
  9 10  1  0
 10 11  2  0
 10 12  1  0
 12 13  1  0
 13 14  2  0
 14 15  1  0
 15 16  2  0
 16 17  1  0
 17 18  2  0
 18 19  1  0
 19 20  2  0
 20 21  1  0
 21 22  2  0
  9 23  1  0
 23 24  1  0
 24  5  1  0
 22 13  1  0
 22 17  1  0
M  END
>  <cnnaffinities>  (140) 
[5.31754, 5.30956, 4.8499, 5.17492, 5.29672, 5.29719, 5.39676, 5.38971, 4.9803, 5.36597, 5.03661, 5.03784, 4.95816, 4.96087, 4.94228, 4.94229, 4.94235, 5.38239, 4.97967, 5.04991, 5.23053]

>  <score>  (140) 
5.31754

>  <index>  (140) 
70

>  <Smiles>  (140) 
C(C(C([H])([H])[H])(C(C1(C([H])([H])[H])C(C(N(C(=O)C(c2c(nc(c3c(c(c(c(c23)[H])[H])[H])[H])[H])[H])([H])[H])C(C1([H])[H])([H])[H])([H])[H])([H])[H])([H])[H])[H])([H])([H])[H]

>  <h>  (140) 
<NA>

>  <Training>  (140) 
True

>  <Success>  (140) 
True

>  <enamine_searched>  (140) 
False

>  <enamine_id>  (140) 
nan

$$$$

     RDKit          3D

 37 41  0  0  0  0  0  0  0  0999 V2000
    3.7930    3.1662   26.9143 C   0  0  0  0  0  0  0  0  0  0  0  0
    3.2664    1.7305   26.7811 C   0  0  0  0  0  0  0  0  0  0  0  0
    4.1674    0.9513   25.8527 C   0  0  0  0  0  0  0  0  0  0  0  0
    3.9129    0.8505   24.6645 O   0  0  0  0  0  0  0  0  0  0  0  0
    5.3235    0.4385   26.4234 N   0  0  0  0  0  0  0  0  0  0  0  0
    5.3104   -0.0125   27.8222 C   0  0  0  0  0  0  0  0  0  0  0  0
    6.6588   -0.5819   28.2143 C   0  0  0  0  0  0  0  0  0  0  0  0
    7.1154   -1.5839   27.1570 C   0  0  0  0  0  0  0  0  0  0  0  0
    7.3515   -0.7966   25.9021 C   0  0  0  0  0  0  0  0  0  0  0  0
    8.4696   -0.9763   25.0982 C   0  0  0  0  0  0  0  0  0  0  0  0
    8.6558   -0.2118   23.9548 C   0  0  0  0  0  0  0  0  0  0  0  0
    7.7215    0.7764   23.6516 C   0  0  0  0  0  0  0  0  0  0  0  0
    7.8731    1.5216   22.4558 N   0  0  0  0  0  0  0  0  0  0  0  0
    8.3328    2.9041   22.5490 C   0  0  0  0  0  0  0  0  0  0  0  0
    7.1882    3.8743   22.7437 C   0  0  0  0  0  0  0  0  0  0  0  0
    6.2798    4.0375   21.7029 C   0  0  0  0  0  0  0  0  0  0  0  0
    5.1865    4.8832   21.8394 C   0  0  0  0  0  0  0  0  0  0  0  0
    4.9529    5.5431   23.0405 C   0  0  0  0  0  0  0  0  0  0  0  0
    5.8477    5.3489   24.0825 C   0  0  0  0  0  0  0  0  0  0  0  0
    5.5237    6.1008   25.6253 Cl  0  0  0  0  0  0  0  0  0  0  0  0
    6.9763    4.5482   23.9453 C   0  0  0  0  0  0  0  0  0  0  0  0
    7.6895    0.9444   21.2233 C   0  0  0  0  0  0  0  0  0  0  0  0
    8.1426    1.4448   20.2149 O   0  0  0  0  0  0  0  0  0  0  0  0
    6.8757   -0.3550   21.1254 C   0  0  0  0  0  0  0  0  0  0  0  0
    5.8657   -0.2097   20.0225 C   0  0  0  0  0  0  0  0  0  0  0  0
    6.0650   -0.7777   18.7911 C   0  0  0  0  0  0  0  0  0  0  0  0
    5.2592   -0.6071   17.7110 N   0  0  0  0  0  0  0  0  0  0  0  0
    4.2185    0.1839   17.8549 C   0  0  0  0  0  0  0  0  0  0  0  0
    3.9195    0.8640   19.0698 C   0  0  0  0  0  0  0  0  0  0  0  0
    2.8316    1.7538   19.2096 C   0  0  0  0  0  0  0  0  0  0  0  0
    2.1447    2.0553   18.0958 F   0  0  0  0  0  0  0  0  0  0  0  0
    2.4410    2.2802   20.4055 C   0  0  0  0  0  0  0  0  0  0  0  0
    3.2453    2.0186   21.5308 C   0  0  0  0  0  0  0  0  0  0  0  0
    4.3905    1.2685   21.4232 C   0  0  0  0  0  0  0  0  0  0  0  0
    4.7381    0.6427   20.1978 C   0  0  0  0  0  0  0  0  0  0  0  0
    6.6308    1.0166   24.4652 C   0  0  0  0  0  0  0  0  0  0  0  0
    6.4315    0.2089   25.5828 C   0  0  0  0  0  0  0  0  0  0  0  0
  1  2  1  0
  2  3  1  0
  3  4  2  0
  3  5  1  0
  5  6  1  0
  6  7  1  0
  7  8  1  0
  8  9  1  0
  9 10  2  0
 10 11  1  0
 11 12  2  0
 12 13  1  0
 13 14  1  0
 14 15  1  0
 15 16  2  0
 16 17  1  0
 17 18  2  0
 18 19  1  0
 19 20  1  0
 19 21  2  0
 13 22  1  0
 22 23  2  0
 22 24  1  0
 24 25  1  0
 25 26  2  0
 26 27  1  0
 27 28  2  0
 28 29  1  0
 29 30  2  0
 30 31  1  0
 30 32  1  0
 32 33  2  0
 33 34  1  0
 34 35  2  0
 12 36  1  0
 36 37  2  0
 37  5  1  0
 37  9  1  0
 21 15  1  0
 35 25  1  0
 35 29  1  0
M  END
>  <cnnaffinities>  (141) 
[6.22617, 6.32806, 6.58774, 6.72164, 6.46541, 6.84748, 6.9595]

>  <score>  (141) 
6.22617

>  <index>  (141) 
69

>  <Smiles>  (141) 
C(C(C(=O)N1C(C(C(c2c(c(c(N(C(c3c(c(c(c(Cl)c3[H])[H])[H])[H])([H])[H])C(=O)C(c3c(nc(c4c(F)c(c(c(c34)[H])[H])[H])[H])[H])([H])[H])c(c12)[H])[H])[H])([H])[H])([H])[H])([H])[H])([H])[H])([H])([H])[H]

>  <h>  (141) 
<NA>

>  <Training>  (141) 
True

>  <Success>  (141) 
True

>  <enamine_searched>  (141) 
False

>  <enamine_id>  (141) 
nan

$$$$

     RDKit          3D

 35 40  0  0  0  0  0  0  0  0999 V2000
    9.9938   -0.8048   21.8511 C   0  0  0  0  0  0  0  0  0  0  0  0
    8.7472   -0.0404   22.3264 C   0  0  1  0  0  0  0  0  0  0  0  0
    7.9861    0.5660   21.1258 C   0  0  0  0  0  0  0  0  0  0  0  0
    6.8723   -0.3319   20.9393 N   0  0  0  0  0  0  0  0  0  0  0  0
    5.9014   -0.1627   19.9253 C   0  0  0  0  0  0  0  0  0  0  0  0
    6.1077   -0.7477   18.7062 C   0  0  0  0  0  0  0  0  0  0  0  0
    5.2882   -0.5962   17.6396 N   0  0  0  0  0  0  0  0  0  0  0  0
    4.2194    0.1456   17.8109 C   0  0  0  0  0  0  0  0  0  0  0  0
    3.8733    0.7861   19.0369 C   0  0  0  0  0  0  0  0  0  0  0  0
    2.7017    1.5777   19.1630 C   0  0  0  0  0  0  0  0  0  0  0  0
    2.3972    2.1779   20.3531 C   0  0  0  0  0  0  0  0  0  0  0  0
    3.2511    2.0212   21.4706 C   0  0  0  0  0  0  0  0  0  0  0  0
    4.3932    1.2630   21.3801 C   0  0  0  0  0  0  0  0  0  0  0  0
    4.7301    0.6259   20.1455 C   0  0  0  0  0  0  0  0  0  0  0  0
    6.6108   -1.1538   22.0084 C   0  0  0  0  0  0  0  0  0  0  0  0
    5.6866   -1.9301   22.0427 O   0  0  0  0  0  0  0  0  0  0  0  0
    7.6782   -0.8985   23.0958 C   0  0  1  0  0  0  0  0  0  0  0  0
    8.2222   -2.2623   23.5937 C   0  0  0  0  0  0  0  0  0  0  0  0
    7.2314   -2.9874   24.3703 N   0  0  0  0  0  0  0  0  0  0  0  0
    7.3077   -4.4312   24.3422 C   0  0  0  0  0  0  0  0  0  0  0  0
    8.5266   -4.9743   25.0106 C   0  0  0  0  0  0  0  0  0  0  0  0
    9.3195   -5.8997   24.4356 N   0  0  0  0  0  0  0  0  0  0  0  0
   10.2523   -6.1716   25.3040 N   0  0  0  0  0  0  0  0  0  0  0  0
    9.9924   -5.4417   26.3647 N   0  0  0  0  0  0  0  0  0  0  0  0
   10.7343   -5.5372   27.6039 C   0  0  0  0  0  0  0  0  0  0  0  0
    8.9259   -4.6729   26.2367 N   0  0  0  0  0  0  0  0  0  0  0  0
    6.6131   -2.3857   25.4375 C   0  0  0  0  0  0  0  0  0  0  0  0
    6.0961   -3.0200   26.3487 O   0  0  0  0  0  0  0  0  0  0  0  0
    6.5922   -0.8890   25.4054 C   0  0  0  0  0  0  0  0  0  0  0  0
    6.0689   -0.2415   26.5259 C   0  0  0  0  0  0  0  0  0  0  0  0
    5.9556    1.1342   26.5559 C   0  0  0  0  0  0  0  0  0  0  0  0
    6.3737    1.8487   25.4397 C   0  0  0  0  0  0  0  0  0  0  0  0
    6.2469    3.1900   25.4505 F   0  0  0  0  0  0  0  0  0  0  0  0
    6.9191    1.2313   24.3255 C   0  0  0  0  0  0  0  0  0  0  0  0
    7.0606   -0.1667   24.2980 C   0  0  0  0  0  0  0  0  0  0  0  0
  2  1  1  6
  2  3  1  0
  3  4  1  0
  4  5  1  0
  5  6  2  0
  6  7  1  0
  7  8  2  0
  8  9  1  0
  9 10  2  0
 10 11  1  0
 11 12  2  0
 12 13  1  0
 13 14  2  0
  4 15  1  0
 15 16  2  0
 15 17  1  0
 17 18  1  1
 18 19  1  0
 19 20  1  0
 20 21  1  0
 21 22  1  0
 22 23  2  0
 23 24  1  0
 24 25  1  0
 24 26  1  0
 19 27  1  0
 27 28  2  0
 27 29  1  0
 29 30  2  0
 30 31  1  0
 31 32  2  0
 32 33  1  0
 32 34  1  0
 34 35  2  0
 17  2  1  0
 26 21  2  0
 35 29  1  0
 14  5  1  0
 35 17  1  0
 14  9  1  0
M  END
>  <cnnaffinities>  (142) 
[6.11628, 6.13413]

>  <score>  (142) 
6.11628

>  <index>  (142) 
70

>  <Smiles>  (142) 
C([C@]1(C(N(c2c(nc(c3c(c(c(c(c23)[H])[H])[H])[H])[H])[H])C(=O)[C@]21C(N(C(c1nnn(C([H])([H])[H])n1)([H])[H])C(=O)c1c(c(c(F)c(c21)[H])[H])[H])([H])[H])([H])[H])[H])([H])([H])[H]

>  <h>  (142) 
<NA>

>  <Training>  (142) 
True

>  <Success>  (142) 
True

>  <enamine_searched>  (142) 
False

>  <enamine_id>  (142) 
nan

$$$$

     RDKit          3D

 31 35  0  0  0  0  0  0  0  0999 V2000
   -8.3901   -4.0238  -23.6749 C   0  0  0  0  0  0  0  0  0  0  0  0
   -8.5949   -3.0947  -22.4850 C   0  0  1  0  0  0  0  0  0  0  0  0
   -7.2613   -2.5164  -21.9992 C   0  0  0  0  0  0  0  0  0  0  0  0
   -7.6648   -1.3475  -21.2545 N   0  0  0  0  0  0  0  0  0  0  0  0
   -6.8806   -0.8010  -20.2100 C   0  0  0  0  0  0  0  0  0  0  0  0
   -7.1945   -1.0541  -18.8987 C   0  0  0  0  0  0  0  0  0  0  0  0
   -6.4676   -0.6215  -17.8366 N   0  0  0  0  0  0  0  0  0  0  0  0
   -5.3952    0.0921  -18.0863 C   0  0  0  0  0  0  0  0  0  0  0  0
   -4.9496    0.4263  -19.3965 C   0  0  0  0  0  0  0  0  0  0  0  0
   -3.7969    1.2241  -19.6225 C   0  0  0  0  0  0  0  0  0  0  0  0
   -3.3905    1.5065  -20.8970 C   0  0  0  0  0  0  0  0  0  0  0  0
   -4.1116    1.0034  -22.0026 C   0  0  0  0  0  0  0  0  0  0  0  0
   -5.2384    0.2414  -21.8113 C   0  0  0  0  0  0  0  0  0  0  0  0
   -5.6941   -0.0545  -20.4990 C   0  0  0  0  0  0  0  0  0  0  0  0
   -8.9529   -0.9309  -21.5314 C   0  0  0  0  0  0  0  0  0  0  0  0
   -9.4870    0.0202  -21.0110 O   0  0  0  0  0  0  0  0  0  0  0  0
   -9.5429   -1.8685  -22.6369 C   0  0  1  0  0  0  0  0  0  0  0  0
   -9.3762   -1.2065  -24.0307 C   0  0  0  0  0  0  0  0  0  0  0  0
  -10.3165   -0.1234  -24.2563 N   0  0  0  0  0  0  0  0  0  0  0  0
   -9.8959    1.1429  -24.8172 C   0  0  0  0  0  0  0  0  0  0  0  0
  -10.0037    2.2261  -23.8256 C   0  0  0  0  0  0  0  0  0  0  0  0
  -10.1362    3.0609  -23.0414 N   0  0  0  0  0  0  0  0  0  0  0  0
  -11.6426   -0.2396  -23.9559 C   0  0  0  0  0  0  0  0  0  0  0  0
  -12.4807    0.5635  -24.3396 O   0  0  0  0  0  0  0  0  0  0  0  0
  -12.0099   -1.3548  -23.0576 C   0  0  0  0  0  0  0  0  0  0  0  0
  -13.3687   -1.4713  -22.7663 C   0  0  0  0  0  0  0  0  0  0  0  0
  -13.8055   -2.3956  -21.8487 C   0  0  0  0  0  0  0  0  0  0  0  0
  -12.8333   -3.2011  -21.2704 C   0  0  0  0  0  0  0  0  0  0  0  0
  -13.2307   -4.0493  -20.3126 F   0  0  0  0  0  0  0  0  0  0  0  0
  -11.4924   -3.1400  -21.5961 C   0  0  0  0  0  0  0  0  0  0  0  0
  -11.0287   -2.1492  -22.4558 C   0  0  0  0  0  0  0  0  0  0  0  0
  2  1  1  6
  2  3  1  0
  3  4  1  0
  4  5  1  0
  5  6  2  0
  6  7  1  0
  7  8  2  0
  8  9  1  0
  9 10  2  0
 10 11  1  0
 11 12  2  0
 12 13  1  0
 13 14  2  0
  4 15  1  0
 15 16  2  0
 15 17  1  0
 17 18  1  6
 18 19  1  0
 19 20  1  0
 20 21  1  0
 21 22  3  0
 19 23  1  0
 23 24  2  0
 23 25  1  0
 25 26  2  0
 26 27  1  0
 27 28  2  0
 28 29  1  0
 28 30  1  0
 30 31  2  0
 17  2  1  0
 31 25  1  0
 14  5  1  0
 31 17  1  0
 14  9  1  0
M  END
>  <cnnaffinities>  (143) 
[6.45167]

>  <score>  (143) 
6.45167

>  <index>  (143) 
46

>  <Smiles>  (143) 
C([C@]1(C(N(c2c(nc(c3c(c(c(c(c23)[H])[H])[H])[H])[H])[H])C(=O)[C@]21C(N(C(C#N)([H])[H])C(=O)c1c(c(c(F)c(c21)[H])[H])[H])([H])[H])([H])[H])[H])([H])([H])[H]

>  <h>  (143) 
<NA>

>  <Training>  (143) 
True

>  <Success>  (143) 
True

>  <enamine_searched>  (143) 
False

>  <enamine_id>  (143) 
nan

$$$$

     RDKit          3D

 35 40  0  0  0  0  0  0  0  0999 V2000
    7.9797   -1.5658   24.2256 C   0  0  0  0  0  0  0  0  0  0  0  0
    8.1045   -1.1258   22.7693 C   0  0  1  0  0  0  0  0  0  0  0  0
    6.7934   -1.3249   21.9955 C   0  0  0  0  0  0  0  0  0  0  0  0
    6.8480   -0.3096   20.9761 N   0  0  0  0  0  0  0  0  0  0  0  0
    5.8832   -0.1669   19.9529 C   0  0  0  0  0  0  0  0  0  0  0  0
    6.0833   -0.7870   18.7495 C   0  0  0  0  0  0  0  0  0  0  0  0
    5.2638   -0.6535   17.6782 N   0  0  0  0  0  0  0  0  0  0  0  0
    4.1989    0.0985   17.8264 C   0  0  0  0  0  0  0  0  0  0  0  0
    3.8559    0.7677   19.0377 C   0  0  0  0  0  0  0  0  0  0  0  0
    2.6801    1.5539   19.1645 C   0  0  0  0  0  0  0  0  0  0  0  0
    2.3600    2.1443   20.3550 C   0  0  0  0  0  0  0  0  0  0  0  0
    3.2185    2.0153   21.4707 C   0  0  0  0  0  0  0  0  0  0  0  0
    4.3755    1.2793   21.3717 C   0  0  0  0  0  0  0  0  0  0  0  0
    4.7179    0.6341   20.1493 C   0  0  0  0  0  0  0  0  0  0  0  0
    7.8133    0.6515   21.1733 C   0  0  0  0  0  0  0  0  0  0  0  0
    8.0237    1.5674   20.4127 O   0  0  0  0  0  0  0  0  0  0  0  0
    8.5446    0.3445   22.4948 C   0  0  1  0  0  0  0  0  0  0  0  0
    8.0750    1.2932   23.6212 C   0  0  0  0  0  0  0  0  0  0  0  0
    8.5721    2.6470   23.4591 N   0  0  0  0  0  0  0  0  0  0  0  0
    7.7254    3.7700   23.8083 C   0  0  0  0  0  0  0  0  0  0  0  0
    7.1296    4.4230   22.5948 C   0  0  0  0  0  0  0  0  0  0  0  0
    6.1899    3.8370   21.8770 N   0  0  0  0  0  0  0  0  0  0  0  0
    5.8630    4.7531   20.9052 C   0  0  0  0  0  0  0  0  0  0  0  0
    6.6264    5.8824   21.0372 C   0  0  0  0  0  0  0  0  0  0  0  0
    7.4275    5.6692   22.1335 N   0  0  0  0  0  0  0  0  0  0  0  0
    8.2747    6.6571   22.7814 C   0  0  0  0  0  0  0  0  0  0  0  0
    9.8802    2.9083   23.1690 C   0  0  0  0  0  0  0  0  0  0  0  0
   10.3708    4.0301   23.2463 O   0  0  0  0  0  0  0  0  0  0  0  0
   10.6698    1.7366   22.6904 C   0  0  0  0  0  0  0  0  0  0  0  0
   12.0314    1.9402   22.4701 C   0  0  0  0  0  0  0  0  0  0  0  0
   12.8139    0.9249   21.9542 C   0  0  0  0  0  0  0  0  0  0  0  0
   12.1814   -0.2711   21.6251 C   0  0  0  0  0  0  0  0  0  0  0  0
   12.9260   -1.2825   21.1387 F   0  0  0  0  0  0  0  0  0  0  0  0
   10.8166   -0.4563   21.7255 C   0  0  0  0  0  0  0  0  0  0  0  0
   10.0392    0.5366   22.3305 C   0  0  0  0  0  0  0  0  0  0  0  0
  2  1  1  1
  2  3  1  0
  3  4  1  0
  4  5  1  0
  5  6  2  0
  6  7  1  0
  7  8  2  0
  8  9  1  0
  9 10  2  0
 10 11  1  0
 11 12  2  0
 12 13  1  0
 13 14  2  0
  4 15  1  0
 15 16  2  0
 15 17  1  0
 17 18  1  1
 18 19  1  0
 19 20  1  0
 20 21  1  0
 21 22  2  0
 22 23  1  0
 23 24  2  0
 24 25  1  0
 25 26  1  0
 19 27  1  0
 27 28  2  0
 27 29  1  0
 29 30  2  0
 30 31  1  0
 31 32  2  0
 32 33  1  0
 32 34  1  0
 34 35  2  0
 17  2  1  0
 25 21  1  0
 35 29  1  0
 14  5  1  0
 35 17  1  0
 14  9  1  0
M  END
>  <cnnaffinities>  (144) 
[6.02154, 6.11455, 6.12123]

>  <score>  (144) 
6.02154

>  <index>  (144) 
71

>  <Smiles>  (144) 
C([C@]1(C(N(c2c(nc(c3c(c(c(c(c23)[H])[H])[H])[H])[H])[H])C(=O)[C@]21C(N(C(c1nc(c(n1C([H])([H])[H])[H])[H])([H])[H])C(=O)c1c(c(c(F)c(c21)[H])[H])[H])([H])[H])([H])[H])[H])([H])([H])[H]

>  <h>  (144) 
<NA>

>  <Training>  (144) 
True

>  <Success>  (144) 
True

>  <enamine_searched>  (144) 
False

>  <enamine_id>  (144) 
nan

$$$$

     RDKit          3D

 36 40  0  0  0  0  0  0  0  0999 V2000
    8.2728    6.0643   26.0528 C   0  0  0  0  0  0  0  0  0  0  0  0
    8.2730    5.4596   24.7315 N   0  0  0  0  0  0  0  0  0  0  0  0
    7.5889    4.3096   24.5247 C   0  0  0  0  0  0  0  0  0  0  0  0
    6.8698    3.8028   25.3746 O   0  0  0  0  0  0  0  0  0  0  0  0
    7.7183    3.6971   23.1227 C   0  0  0  0  0  0  0  0  0  0  0  0
    8.6319    2.5793   23.0459 N   0  0  0  0  0  0  0  0  0  0  0  0
    8.2095    1.2605   23.4739 C   0  0  0  0  0  0  0  0  0  0  0  0
    8.6600    0.1954   22.4380 C   0  0  2  0  0  0  0  0  0  0  0  0
    7.9419    0.4937   21.0996 C   0  0  0  0  0  0  0  0  0  0  0  0
    8.2432    1.3311   20.2834 O   0  0  0  0  0  0  0  0  0  0  0  0
    6.8488   -0.3377   20.9948 N   0  0  0  0  0  0  0  0  0  0  0  0
    5.8937   -0.1638   19.9628 C   0  0  0  0  0  0  0  0  0  0  0  0
    6.0727   -0.7988   18.7624 C   0  0  0  0  0  0  0  0  0  0  0  0
    5.2464   -0.6683   17.6960 N   0  0  0  0  0  0  0  0  0  0  0  0
    4.1859    0.0882   17.8441 C   0  0  0  0  0  0  0  0  0  0  0  0
    3.8374    0.7547   19.0546 C   0  0  0  0  0  0  0  0  0  0  0  0
    2.6539    1.5324   19.1789 C   0  0  0  0  0  0  0  0  0  0  0  0
    2.3505    2.1617   20.3528 C   0  0  0  0  0  0  0  0  0  0  0  0
    3.2309    2.0616   21.4521 C   0  0  0  0  0  0  0  0  0  0  0  0
    4.3850    1.3222   21.3569 C   0  0  0  0  0  0  0  0  0  0  0  0
    4.7178    0.6377   20.1526 C   0  0  0  0  0  0  0  0  0  0  0  0
    6.7050   -1.2673   22.0905 C   0  0  0  0  0  0  0  0  0  0  0  0
    8.1054   -1.2272   22.7589 C   0  0  2  0  0  0  0  0  0  0  0  0
    8.0630   -1.6185   24.1615 N   0  0  0  0  0  0  0  0  0  0  0  0
    7.5786   -2.8404   24.5416 C   0  0  0  0  0  0  0  0  0  0  0  0
    7.1477   -3.6498   23.7287 O   0  0  0  0  0  0  0  0  0  0  0  0
    7.5979   -3.1307   26.0334 C   0  0  0  0  0  0  0  0  0  0  0  0
   10.1636    0.3545   22.2819 C   0  0  0  0  0  0  0  0  0  0  0  0
   10.9714   -0.7068   21.8560 C   0  0  0  0  0  0  0  0  0  0  0  0
   12.3307   -0.5129   21.6800 C   0  0  0  0  0  0  0  0  0  0  0  0
   13.3235   -1.8339   21.1387 Cl  0  0  0  0  0  0  0  0  0  0  0  0
   12.9256    0.7292   21.8910 C   0  0  0  0  0  0  0  0  0  0  0  0
   12.1295    1.7946   22.2636 C   0  0  0  0  0  0  0  0  0  0  0  0
   10.7604    1.6207   22.4456 C   0  0  0  0  0  0  0  0  0  0  0  0
    9.9377    2.8346   22.7625 C   0  0  0  0  0  0  0  0  0  0  0  0
   10.3881    3.9794   22.7542 O   0  0  0  0  0  0  0  0  0  0  0  0
  1  2  1  0
  2  3  1  0
  3  4  2  0
  3  5  1  0
  5  6  1  0
  6  7  1  0
  8  7  1  1
  8  9  1  0
  9 10  2  0
  9 11  1  0
 11 12  1  0
 12 13  2  0
 13 14  1  0
 14 15  2  0
 15 16  1  0
 16 17  2  0
 17 18  1  0
 18 19  2  0
 19 20  1  0
 20 21  2  0
 11 22  1  0
 22 23  1  0
 23 24  1  1
 24 25  1  0
 25 26  2  0
 25 27  1  0
  8 28  1  0
 28 29  2  0
 29 30  1  0
 30 31  1  0
 30 32  2  0
 32 33  1  0
 33 34  2  0
 34 35  1  0
 35 36  2  0
 35  6  1  0
 23  8  1  0
 34 28  1  0
 21 12  1  0
 21 16  1  0
M  END
>  <cnnaffinities>  (145) 
[6.05589, 6.13693, 5.87553, 6.07426, 6.14646, 6.22595]

>  <score>  (145) 
6.05589

>  <index>  (145) 
72

>  <Smiles>  (145) 
C(N(C(=O)C(N1C([C@@]2(C(=O)N(c3c(nc(c4c(c(c(c(c34)[H])[H])[H])[H])[H])[H])C([C@@]2(N(C(=O)C([H])([H])[H])[H])[H])([H])[H])c2c(c(Cl)c(c(c2C1=O)[H])[H])[H])([H])[H])([H])[H])[H])([H])([H])[H]

>  <h>  (145) 
<NA>

>  <Training>  (145) 
True

>  <Success>  (145) 
True

>  <enamine_searched>  (145) 
False

>  <enamine_id>  (145) 
nan

$$$$

     RDKit          3D

 23 26  0  0  0  0  0  0  0  0999 V2000
   -8.6552    0.7030  -21.2778 O   0  0  0  0  0  0  0  0  0  0  0  0
   -8.6395   -0.4437  -21.7006 C   0  0  0  0  0  0  0  0  0  0  0  0
   -7.5214   -1.4109  -21.2833 C   0  0  0  0  0  0  0  0  0  0  0  0
   -6.6484   -0.8446  -20.1950 C   0  0  0  0  0  0  0  0  0  0  0  0
   -6.9584   -1.0659  -18.8823 C   0  0  0  0  0  0  0  0  0  0  0  0
   -6.2856   -0.5735  -17.8056 N   0  0  0  0  0  0  0  0  0  0  0  0
   -5.2447    0.1875  -18.0657 C   0  0  0  0  0  0  0  0  0  0  0  0
   -4.7992    0.5096  -19.3767 C   0  0  0  0  0  0  0  0  0  0  0  0
   -3.6634    1.3305  -19.6024 C   0  0  0  0  0  0  0  0  0  0  0  0
   -3.2628    1.6209  -20.8781 C   0  0  0  0  0  0  0  0  0  0  0  0
   -3.9841    1.1140  -21.9793 C   0  0  0  0  0  0  0  0  0  0  0  0
   -5.0923    0.3284  -21.7873 C   0  0  0  0  0  0  0  0  0  0  0  0
   -5.5250   -0.0073  -20.4772 C   0  0  0  0  0  0  0  0  0  0  0  0
   -9.6213   -0.9370  -22.5267 N   0  0  0  0  0  0  0  0  0  0  0  0
   -9.5826   -2.2395  -23.2062 C   0  0  0  0  0  0  0  0  0  0  0  0
  -10.3181   -3.3440  -22.4320 C   0  0  0  0  0  0  0  0  0  0  0  0
  -11.5432   -2.7729  -21.6921 C   0  0  0  0  0  0  0  0  0  0  0  0
  -12.4375   -1.8308  -22.4788 C   0  0  0  0  0  0  0  0  0  0  0  0
  -14.1507   -2.0928  -22.6402 S   0  0  0  0  0  0  0  0  0  0  0  0
  -14.3751   -0.5531  -23.3848 C   0  0  0  0  0  0  0  0  0  0  0  0
  -13.2023    0.1218  -23.5031 C   0  0  0  0  0  0  0  0  0  0  0  0
  -12.0752   -0.6085  -22.9777 C   0  0  0  0  0  0  0  0  0  0  0  0
  -10.6821   -0.0068  -22.9078 C   0  0  0  0  0  0  0  0  0  0  0  0
  1  2  2  0
  2  3  1  0
  3  4  1  0
  4  5  2  0
  5  6  1  0
  6  7  2  0
  7  8  1  0
  8  9  2  0
  9 10  1  0
 10 11  2  0
 11 12  1  0
 12 13  2  0
  2 14  1  0
 14 15  1  0
 15 16  1  0
 16 17  1  0
 17 18  1  0
 18 19  1  0
 19 20  1  0
 20 21  2  0
 21 22  1  0
 22 23  1  0
 13  4  1  0
 23 14  1  0
 13  8  1  0
 22 18  2  0
M  END
>  <cnnaffinities>  (146) 
[5.62526, 5.41941, 5.3597, 5.23042, 5.20166, 5.07236, 5.15493, 5.11482, 5.01826, 5.2796]

>  <score>  (146) 
5.62526

>  <index>  (146) 
72

>  <Smiles>  (146) 
O=C(C(c1c(nc(c2c(c(c(c(c12)[H])[H])[H])[H])[H])[H])([H])[H])N1C(C(C(c2sc(c(c2C1([H])[H])[H])[H])([H])[H])([H])[H])([H])[H]

>  <h>  (146) 
<NA>

>  <Training>  (146) 
True

>  <Success>  (146) 
True

>  <enamine_searched>  (146) 
False

>  <enamine_id>  (146) 
nan

$$$$

     RDKit          3D

 26 29  0  0  0  0  0  0  0  0999 V2000
   -8.6955    0.6361  -21.1861 O   0  0  0  0  0  0  0  0  0  0  0  0
   -8.2375   -0.2399  -21.9000 C   0  0  0  0  0  0  0  0  0  0  0  0
   -7.4468   -1.3980  -21.2719 C   0  0  0  0  0  0  0  0  0  0  0  0
   -6.5786   -0.8642  -20.1675 C   0  0  0  0  0  0  0  0  0  0  0  0
   -6.9028   -1.0693  -18.8540 C   0  0  0  0  0  0  0  0  0  0  0  0
   -6.2315   -0.5602  -17.7856 N   0  0  0  0  0  0  0  0  0  0  0  0
   -5.1931    0.1973  -18.0542 C   0  0  0  0  0  0  0  0  0  0  0  0
   -4.7439    0.5061  -19.3695 C   0  0  0  0  0  0  0  0  0  0  0  0
   -3.6261    1.3498  -19.6049 C   0  0  0  0  0  0  0  0  0  0  0  0
   -3.2311    1.6460  -20.8819 C   0  0  0  0  0  0  0  0  0  0  0  0
   -3.9366    1.1082  -21.9794 C   0  0  0  0  0  0  0  0  0  0  0  0
   -5.0169    0.2856  -21.7790 C   0  0  0  0  0  0  0  0  0  0  0  0
   -5.4547   -0.0358  -20.4623 C   0  0  0  0  0  0  0  0  0  0  0  0
   -8.3558   -0.2207  -23.2729 N   0  0  0  0  0  0  0  0  0  0  0  0
   -8.3821   -1.3945  -24.1469 C   0  0  0  0  0  0  0  0  0  0  0  0
   -7.3026   -1.3203  -25.2261 C   0  0  0  0  0  0  0  0  0  0  0  0
   -7.4129   -0.0005  -25.9896 C   0  0  0  0  0  0  0  0  0  0  0  0
   -7.3602    1.1833  -25.0227 C   0  0  0  0  0  0  0  0  0  0  0  0
   -8.4411    1.0792  -23.9461 C   0  0  1  0  0  0  0  0  0  0  0  0
   -9.8246    1.3632  -24.5494 C   0  0  0  0  0  0  0  0  0  0  0  0
  -10.8778    1.4959  -23.4753 C   0  0  0  0  0  0  0  0  0  0  0  0
  -10.9207    2.6939  -22.7522 C   0  0  0  0  0  0  0  0  0  0  0  0
  -11.9239    2.9310  -21.8218 C   0  0  0  0  0  0  0  0  0  0  0  0
  -12.8799    1.9523  -21.5906 C   0  0  0  0  0  0  0  0  0  0  0  0
  -12.7871    0.7171  -22.2318 C   0  0  0  0  0  0  0  0  0  0  0  0
  -11.7756    0.4700  -23.1616 C   0  0  0  0  0  0  0  0  0  0  0  0
  1  2  2  0
  2  3  1  0
  3  4  1  0
  4  5  2  0
  5  6  1  0
  6  7  2  0
  7  8  1  0
  8  9  2  0
  9 10  1  0
 10 11  2  0
 11 12  1  0
 12 13  2  0
  2 14  1  0
 14 15  1  0
 15 16  1  0
 16 17  1  0
 17 18  1  0
 18 19  1  0
 19 20  1  6
 20 21  1  0
 21 22  2  0
 22 23  1  0
 23 24  2  0
 24 25  1  0
 25 26  2  0
 13  4  1  0
 19 14  1  0
 26 21  1  0
 13  8  1  0
M  END
>  <cnnaffinities>  (147) 
[5.35661, 5.30727, 5.3072, 5.4658, 5.30139, 5.29787, 5.2274, 5.2253, 5.44088]

>  <score>  (147) 
5.35661

>  <index>  (147) 
73

>  <Smiles>  (147) 
O=C(C(c1c(nc(c2c(c(c(c(c12)[H])[H])[H])[H])[H])[H])([H])[H])N1C(C(C(C([C@]1(C(c1c(c(c(c(c1[H])[H])[H])[H])[H])([H])[H])[H])([H])[H])([H])[H])([H])[H])([H])[H]

>  <h>  (147) 
<NA>

>  <Training>  (147) 
True

>  <Success>  (147) 
True

>  <enamine_searched>  (147) 
False

>  <enamine_id>  (147) 
nan

$$$$

     RDKit          3D

 32 37  0  0  0  0  0  0  0  0999 V2000
    8.1660   -2.2742   23.9741 C   0  0  0  0  0  0  0  0  0  0  0  0
    8.5374   -1.6207   22.6419 C   0  0  1  0  0  0  0  0  0  0  0  0
    7.3201   -1.4810   21.7091 C   0  0  0  0  0  0  0  0  0  0  0  0
    7.6258   -0.2998   20.9343 N   0  0  0  0  0  0  0  0  0  0  0  0
    6.7842    0.2214   19.9301 C   0  0  0  0  0  0  0  0  0  0  0  0
    7.1054   -0.0075   18.6218 C   0  0  0  0  0  0  0  0  0  0  0  0
    6.3827    0.4434   17.5699 N   0  0  0  0  0  0  0  0  0  0  0  0
    5.3271    1.1706   17.8593 C   0  0  0  0  0  0  0  0  0  0  0  0
    4.9152    1.5184   19.1793 C   0  0  0  0  0  0  0  0  0  0  0  0
    3.7870    2.3428   19.4219 C   0  0  0  0  0  0  0  0  0  0  0  0
    3.4064    2.6450   20.6994 C   0  0  0  0  0  0  0  0  0  0  0  0
    4.1320    2.1372   21.8003 C   0  0  0  0  0  0  0  0  0  0  0  0
    5.2262    1.3322   21.5934 C   0  0  0  0  0  0  0  0  0  0  0  0
    5.6542    1.0177   20.2685 C   0  0  0  0  0  0  0  0  0  0  0  0
    8.5807    0.5203   21.4810 C   0  0  0  0  0  0  0  0  0  0  0  0
    8.8121    1.6393   21.0667 O   0  0  0  0  0  0  0  0  0  0  0  0
    9.2039   -0.2038   22.6883 C   0  0  1  0  0  0  0  0  0  0  0  0
    8.8655    0.6043   23.9614 C   0  0  0  0  0  0  0  0  0  0  0  0
    9.5025    1.9042   23.9103 N   0  0  0  0  0  0  0  0  0  0  0  0
    8.7727    3.0581   24.3907 C   0  0  0  0  0  0  0  0  0  0  0  0
    7.4044    3.3550   23.7290 C   0  0  0  0  0  0  0  0  0  0  0  0
    7.8991    4.6828   23.1746 N   0  0  0  0  0  0  0  0  0  0  0  0
    9.2454    4.4181   23.8215 C   0  0  0  0  0  0  0  0  0  0  0  0
   10.8625    1.9767   23.7704 C   0  0  0  0  0  0  0  0  0  0  0  0
   11.5285    2.9484   24.1114 O   0  0  0  0  0  0  0  0  0  0  0  0
   11.4895    0.7538   23.1806 C   0  0  0  0  0  0  0  0  0  0  0  0
   12.8734    0.6247   23.2462 C   0  0  0  0  0  0  0  0  0  0  0  0
   13.5114   -0.3697   22.5332 C   0  0  0  0  0  0  0  0  0  0  0  0
   12.7420   -1.1651   21.6809 C   0  0  0  0  0  0  0  0  0  0  0  0
   13.5535   -2.2269   20.5725 Cl  0  0  0  0  0  0  0  0  0  0  0  0
   11.3597   -1.1312   21.7045 C   0  0  0  0  0  0  0  0  0  0  0  0
   10.7112   -0.2177   22.5431 C   0  0  0  0  0  0  0  0  0  0  0  0
  2  1  1  1
  2  3  1  0
  3  4  1  0
  4  5  1  0
  5  6  2  0
  6  7  1  0
  7  8  2  0
  8  9  1  0
  9 10  2  0
 10 11  1  0
 11 12  2  0
 12 13  1  0
 13 14  2  0
  4 15  1  0
 15 16  2  0
 15 17  1  0
 17 18  1  1
 18 19  1  0
 19 20  1  0
 20 21  1  0
 21 22  1  0
 22 23  1  0
 19 24  1  0
 24 25  2  0
 24 26  1  0
 26 27  2  0
 27 28  1  0
 28 29  2  0
 29 30  1  0
 29 31  1  0
 31 32  2  0
 17  2  1  0
 23 20  1  0
 32 26  1  0
 14  5  1  0
 32 17  1  0
 14  9  1  0
M  CHG  1  22   1
M  END
>  <cnnaffinities>  (148) 
[6.57799, 6.57612, 6.45194, 6.4499, 5.84613, 5.84407]

>  <score>  (148) 
6.57799

>  <index>  (148) 
2

>  <Smiles>  (148) 
C([C@]1(C(N(c2c(nc(c3c(c(c(c(c23)[H])[H])[H])[H])[H])[H])C(=O)[C@]21C(N(C1(C([N+](C1([H])[H])([H])[H])([H])[H])[H])C(=O)c1c(c(c(Cl)c(c21)[H])[H])[H])([H])[H])([H])[H])[H])([H])([H])[H]

>  <h>  (148) 
<NA>

>  <Training>  (148) 
True

>  <Success>  (148) 
True

>  <enamine_searched>  (148) 
False

>  <enamine_id>  (148) 
nan

$$$$

     RDKit          3D

 34 39  0  0  0  0  0  0  0  0999 V2000
    8.3060   -2.4743   23.7985 C   0  0  0  0  0  0  0  0  0  0  0  0
    8.6119   -1.7372   22.4936 C   0  0  1  0  0  0  0  0  0  0  0  0
    7.3515   -1.5730   21.6228 C   0  0  0  0  0  0  0  0  0  0  0  0
    7.5959   -0.3369   20.9162 N   0  0  0  0  0  0  0  0  0  0  0  0
    6.7666    0.1961   19.9139 C   0  0  0  0  0  0  0  0  0  0  0  0
    7.0920   -0.0287   18.6048 C   0  0  0  0  0  0  0  0  0  0  0  0
    6.3681    0.4211   17.5546 N   0  0  0  0  0  0  0  0  0  0  0  0
    5.3132    1.1505   17.8394 C   0  0  0  0  0  0  0  0  0  0  0  0
    4.8968    1.4951   19.1587 C   0  0  0  0  0  0  0  0  0  0  0  0
    3.7784    2.3340   19.4029 C   0  0  0  0  0  0  0  0  0  0  0  0
    3.3905    2.6221   20.6804 C   0  0  0  0  0  0  0  0  0  0  0  0
    4.1049    2.0917   21.7803 C   0  0  0  0  0  0  0  0  0  0  0  0
    5.2036    1.2927   21.5734 C   0  0  0  0  0  0  0  0  0  0  0  0
    5.6300    0.9876   20.2495 C   0  0  0  0  0  0  0  0  0  0  0  0
    8.5990    0.4427   21.4327 C   0  0  0  0  0  0  0  0  0  0  0  0
    8.9098    1.5225   20.9775 O   0  0  0  0  0  0  0  0  0  0  0  0
    9.1960   -0.2993   22.6412 C   0  0  1  0  0  0  0  0  0  0  0  0
    8.7105    0.3456   23.9594 C   0  0  0  0  0  0  0  0  0  0  0  0
    9.1476    1.7202   24.0541 N   0  0  0  0  0  0  0  0  0  0  0  0
    8.2311    2.7630   24.5013 C   0  0  0  0  0  0  0  0  0  0  0  0
    7.9893    3.8576   23.4944 C   0  0  0  0  0  0  0  0  0  0  0  0
    8.8332    4.9160   23.0380 C   0  0  0  0  0  0  0  0  0  0  0  0
    8.0461    5.5755   22.1559 C   0  0  0  0  0  0  0  0  0  0  0  0
    6.8437    4.9884   22.0736 O   0  0  0  0  0  0  0  0  0  0  0  0
    6.8087    3.9187   22.9272 N   0  0  0  0  0  0  0  0  0  0  0  0
   10.4730    2.0143   23.8712 C   0  0  0  0  0  0  0  0  0  0  0  0
   10.9792    3.0725   24.2217 O   0  0  0  0  0  0  0  0  0  0  0  0
   11.3001    0.9343   23.2381 C   0  0  0  0  0  0  0  0  0  0  0  0
   12.6875    1.0488   23.2888 C   0  0  0  0  0  0  0  0  0  0  0  0
   13.4831    0.1279   22.6356 C   0  0  0  0  0  0  0  0  0  0  0  0
   12.8702   -0.8694   21.8820 C   0  0  0  0  0  0  0  0  0  0  0  0
   13.6363   -1.7108   21.1666 F   0  0  0  0  0  0  0  0  0  0  0  0
   11.4996   -1.0192   21.8420 C   0  0  0  0  0  0  0  0  0  0  0  0
   10.7005   -0.1572   22.5979 C   0  0  0  0  0  0  0  0  0  0  0  0
  2  1  1  1
  2  3  1  0
  3  4  1  0
  4  5  1  0
  5  6  2  0
  6  7  1  0
  7  8  2  0
  8  9  1  0
  9 10  2  0
 10 11  1  0
 11 12  2  0
 12 13  1  0
 13 14  2  0
  4 15  1  0
 15 16  2  0
 15 17  1  0
 17 18  1  1
 18 19  1  0
 19 20  1  0
 20 21  1  0
 21 22  1  0
 22 23  2  0
 23 24  1  0
 24 25  1  0
 19 26  1  0
 26 27  2  0
 26 28  1  0
 28 29  2  0
 29 30  1  0
 30 31  2  0
 31 32  1  0
 31 33  1  0
 33 34  2  0
 17  2  1  0
 25 21  2  0
 34 28  1  0
 14  5  1  0
 34 17  1  0
 14  9  1  0
M  END
>  <cnnaffinities>  (149) 
[6.52509]

>  <score>  (149) 
6.52509

>  <index>  (149) 
3

>  <Smiles>  (149) 
C([C@]1(C(N(c2c(nc(c3c(c(c(c(c23)[H])[H])[H])[H])[H])[H])C(=O)[C@]21C(N(C(c1c(c(on1)[H])[H])([H])[H])C(=O)c1c(c(c(F)c(c21)[H])[H])[H])([H])[H])([H])[H])[H])([H])([H])[H]

>  <h>  (149) 
<NA>

>  <Training>  (149) 
True

>  <Success>  (149) 
True

>  <enamine_searched>  (149) 
False

>  <enamine_id>  (149) 
nan

$$$$

     RDKit          3D

 41 46  0  0  0  0  0  0  0  0999 V2000
    2.5339    8.0734   29.0986 C   0  0  0  0  0  0  0  0  0  0  0  0
    3.7989    7.5367   28.8032 O   0  0  0  0  0  0  0  0  0  0  0  0
    3.9307    6.1892   28.9091 C   0  0  0  0  0  0  0  0  0  0  0  0
    2.9369    5.3118   29.3441 C   0  0  0  0  0  0  0  0  0  0  0  0
    3.2260    3.9497   29.4286 C   0  0  0  0  0  0  0  0  0  0  0  0
    4.4757    3.4634   29.0742 C   0  0  0  0  0  0  0  0  0  0  0  0
    5.4586    4.3488   28.6261 C   0  0  0  0  0  0  0  0  0  0  0  0
    6.8394    3.8890   28.2212 C   0  0  0  0  0  0  0  0  0  0  0  0
    7.0636    3.9418   26.7821 N   0  0  0  0  0  0  0  0  0  0  0  0
    6.4869    2.9741   26.0159 C   0  0  0  0  0  0  0  0  0  0  0  0
    5.8135    2.0687   26.4878 O   0  0  0  0  0  0  0  0  0  0  0  0
    6.7390    3.1122   24.5160 C   0  0  0  0  0  0  0  0  0  0  0  0
    7.8638    2.3140   24.0692 N   0  0  0  0  0  0  0  0  0  0  0  0
    7.7251    0.8695   23.9793 C   0  0  0  0  0  0  0  0  0  0  0  0
    8.3717    0.3105   22.6788 C   0  0  2  0  0  0  0  0  0  0  0  0
    7.5696    0.7578   21.4399 C   0  0  0  0  0  0  0  0  0  0  0  0
    7.5710    1.8520   20.9161 O   0  0  0  0  0  0  0  0  0  0  0  0
    6.8481   -0.3168   20.9737 N   0  0  0  0  0  0  0  0  0  0  0  0
    5.8840   -0.1673   19.9585 C   0  0  0  0  0  0  0  0  0  0  0  0
    6.0717   -0.7980   18.7568 C   0  0  0  0  0  0  0  0  0  0  0  0
    5.2603   -0.6540   17.6842 N   0  0  0  0  0  0  0  0  0  0  0  0
    4.2032    0.1095   17.8346 C   0  0  0  0  0  0  0  0  0  0  0  0
    3.8605    0.7686   19.0485 C   0  0  0  0  0  0  0  0  0  0  0  0
    2.6834    1.5507   19.1639 C   0  0  0  0  0  0  0  0  0  0  0  0
    2.3462    2.1328   20.3529 C   0  0  0  0  0  0  0  0  0  0  0  0
    3.1891    1.9928   21.4778 C   0  0  0  0  0  0  0  0  0  0  0  0
    4.3470    1.2646   21.3866 C   0  0  0  0  0  0  0  0  0  0  0  0
    4.7154    0.6307   20.1613 C   0  0  0  0  0  0  0  0  0  0  0  0
    7.0171   -1.5283   21.7401 C   0  0  0  0  0  0  0  0  0  0  0  0
    8.2578   -1.2407   22.5958 C   0  0  2  0  0  0  0  0  0  0  0  0
    8.2495   -2.0171   23.9092 C   0  0  0  0  0  0  0  0  0  0  0  0
    9.7866    0.8536   22.6027 C   0  0  0  0  0  0  0  0  0  0  0  0
   10.8077    0.1493   21.9653 C   0  0  0  0  0  0  0  0  0  0  0  0
   12.1123    0.5958   22.0455 C   0  0  0  0  0  0  0  0  0  0  0  0
   13.3408   -0.4403   21.3869 Cl  0  0  0  0  0  0  0  0  0  0  0  0
   12.4257    1.8331   22.6023 C   0  0  0  0  0  0  0  0  0  0  0  0
   11.4027    2.5877   23.1379 C   0  0  0  0  0  0  0  0  0  0  0  0
   10.1001    2.0987   23.1627 C   0  0  0  0  0  0  0  0  0  0  0  0
    9.0346    2.9500   23.7745 C   0  0  0  0  0  0  0  0  0  0  0  0
    9.1958    4.1448   24.0003 O   0  0  0  0  0  0  0  0  0  0  0  0
    5.1840    5.7029   28.5526 C   0  0  0  0  0  0  0  0  0  0  0  0
  1  2  1  0
  2  3  1  0
  3  4  2  0
  4  5  1  0
  5  6  2  0
  6  7  1  0
  7  8  1  0
  8  9  1  0
  9 10  1  0
 10 11  2  0
 10 12  1  0
 12 13  1  0
 13 14  1  0
 15 14  1  1
 15 16  1  0
 16 17  2  0
 16 18  1  0
 18 19  1  0
 19 20  2  0
 20 21  1  0
 21 22  2  0
 22 23  1  0
 23 24  2  0
 24 25  1  0
 25 26  2  0
 26 27  1  0
 27 28  2  0
 18 29  1  0
 29 30  1  0
 30 31  1  1
 15 32  1  0
 32 33  2  0
 33 34  1  0
 34 35  1  0
 34 36  2  0
 36 37  1  0
 37 38  2  0
 38 39  1  0
 39 40  2  0
  7 41  2  0
 41  3  1  0
 39 13  1  0
 30 15  1  0
 38 32  1  0
 28 19  1  0
 28 23  1  0
M  END
>  <cnnaffinities>  (150) 
[6.28125]

>  <score>  (150) 
6.28125

>  <index>  (150) 
75

>  <Smiles>  (150) 
C(Oc1c(c(c(c(C(N(C(=O)C(N2C([C@@]3(C(=O)N(c4c(nc(c5c(c(c(c(c45)[H])[H])[H])[H])[H])[H])C([C@@]3(C([H])([H])[H])[H])([H])[H])c3c(c(Cl)c(c(c3C2=O)[H])[H])[H])([H])[H])([H])[H])[H])([H])[H])c1[H])[H])[H])[H])([H])([H])[H]

>  <h>  (150) 
<NA>

>  <Training>  (150) 
True

>  <Success>  (150) 
True

>  <enamine_searched>  (150) 
False

>  <enamine_id>  (150) 
nan

$$$$

     RDKit          3D

 27 31  0  0  0  0  0  0  0  0999 V2000
   -9.4291   -0.4490  -20.9916 O   0  0  0  0  0  0  0  0  0  0  0  0
   -8.7468   -1.3628  -21.3810 C   0  0  0  0  0  0  0  0  0  0  0  0
   -9.1376   -2.4504  -22.1143 N   0  0  0  0  0  0  0  0  0  0  0  0
   -8.0405   -3.1517  -22.7326 C   0  0  1  0  0  0  0  0  0  0  0  0
   -8.1058   -4.6935  -22.6965 C   0  0  0  0  0  0  0  0  0  0  0  0
   -8.2273   -4.7392  -24.2534 C   0  0  2  0  0  0  0  0  0  0  0  0
   -7.1816   -5.5468  -24.9583 C   0  0  0  0  0  0  0  0  0  0  0  0
   -5.8248   -5.3054  -24.7124 C   0  0  0  0  0  0  0  0  0  0  0  0
   -4.8367   -6.0462  -25.3494 C   0  0  0  0  0  0  0  0  0  0  0  0
   -5.1879   -7.0520  -26.2483 C   0  0  0  0  0  0  0  0  0  0  0  0
   -6.5280   -7.3116  -26.5038 C   0  0  0  0  0  0  0  0  0  0  0  0
   -7.5050   -6.5629  -25.8585 C   0  0  0  0  0  0  0  0  0  0  0  0
   -9.1750   -6.9425  -26.2140 Cl  0  0  0  0  0  0  0  0  0  0  0  0
   -8.0355   -3.1881  -24.2895 C   0  0  0  0  0  0  0  0  0  0  0  0
   -6.8429   -2.5182  -22.0450 C   0  0  0  0  0  0  0  0  0  0  0  0
   -5.6815   -2.8116  -22.2102 O   0  0  0  0  0  0  0  0  0  0  0  0
   -7.3437   -1.5144  -21.2039 N   0  0  0  0  0  0  0  0  0  0  0  0
   -6.5862   -0.8572  -20.1854 C   0  0  0  0  0  0  0  0  0  0  0  0
   -6.9102   -1.0603  -18.8662 C   0  0  0  0  0  0  0  0  0  0  0  0
   -6.2198   -0.5451  -17.8190 N   0  0  0  0  0  0  0  0  0  0  0  0
   -5.1806    0.2056  -18.0927 C   0  0  0  0  0  0  0  0  0  0  0  0
   -4.7475    0.5230  -19.4082 C   0  0  0  0  0  0  0  0  0  0  0  0
   -3.6175    1.3557  -19.6357 C   0  0  0  0  0  0  0  0  0  0  0  0
   -3.2274    1.6578  -20.9099 C   0  0  0  0  0  0  0  0  0  0  0  0
   -3.9561    1.1428  -22.0059 C   0  0  0  0  0  0  0  0  0  0  0  0
   -5.0498    0.3352  -21.8118 C   0  0  0  0  0  0  0  0  0  0  0  0
   -5.4705   -0.0119  -20.4974 C   0  0  0  0  0  0  0  0  0  0  0  0
  1  2  2  0
  2  3  1  0
  4  3  1  0
  4  5  1  1
  5  6  1  0
  6  7  1  6
  7  8  2  0
  8  9  1  0
  9 10  2  0
 10 11  1  0
 11 12  2  0
 12 13  1  0
  6 14  1  0
  4 15  1  0
 15 16  2  0
 15 17  1  0
 17 18  1  0
 18 19  2  0
 19 20  1  0
 20 21  2  0
 21 22  1  0
 22 23  2  0
 23 24  1  0
 24 25  2  0
 25 26  1  0
 26 27  2  0
 17  2  1  0
 27 18  1  0
 14  4  1  0
 27 22  1  0
 12  7  1  0
M  END
>  <cnnaffinities>  (151) 
[5.68884, 5.90886, 5.74847]

>  <score>  (151) 
5.68884

>  <index>  (151) 
74

>  <Smiles>  (151) 
O=C1N([C@]2(C([C@](c3c(c(c(c(c3Cl)[H])[H])[H])[H])(C2([H])[H])[H])([H])[H])C(=O)N1c1c(nc(c2c(c(c(c(c12)[H])[H])[H])[H])[H])[H])[H]

>  <h>  (151) 
<NA>

>  <Training>  (151) 
True

>  <Success>  (151) 
True

>  <enamine_searched>  (151) 
False

>  <enamine_id>  (151) 
nan

$$$$

     RDKit          3D

 33 37  0  0  0  0  0  0  0  0999 V2000
    8.0500   -1.4858   24.2326 C   0  0  0  0  0  0  0  0  0  0  0  0
    8.1110   -1.0611   22.7715 C   0  0  1  0  0  0  0  0  0  0  0  0
    6.8061   -1.2838   21.9991 C   0  0  0  0  0  0  0  0  0  0  0  0
    6.8789   -0.2885   20.9474 N   0  0  0  0  0  0  0  0  0  0  0  0
    5.9003   -0.1486   19.9342 C   0  0  0  0  0  0  0  0  0  0  0  0
    6.0921   -0.7662   18.7281 C   0  0  0  0  0  0  0  0  0  0  0  0
    5.2662   -0.6377   17.6630 N   0  0  0  0  0  0  0  0  0  0  0  0
    4.2072    0.1180   17.8263 C   0  0  0  0  0  0  0  0  0  0  0  0
    3.8707    0.7857   19.0386 C   0  0  0  0  0  0  0  0  0  0  0  0
    2.7066    1.5892   19.1572 C   0  0  0  0  0  0  0  0  0  0  0  0
    2.3848    2.1778   20.3468 C   0  0  0  0  0  0  0  0  0  0  0  0
    3.2235    2.0112   21.4703 C   0  0  0  0  0  0  0  0  0  0  0  0
    4.3706    1.2583   21.3786 C   0  0  0  0  0  0  0  0  0  0  0  0
    4.7296    0.6365   20.1472 C   0  0  0  0  0  0  0  0  0  0  0  0
    7.7705    0.7307   21.1949 C   0  0  0  0  0  0  0  0  0  0  0  0
    7.8825    1.7184   20.4892 O   0  0  0  0  0  0  0  0  0  0  0  0
    8.5282    0.4125   22.4995 C   0  0  1  0  0  0  0  0  0  0  0  0
    8.0389    1.3693   23.6209 C   0  0  0  0  0  0  0  0  0  0  0  0
    8.4540    2.7410   23.3716 N   0  0  0  0  0  0  0  0  0  0  0  0
    7.5430    3.7933   23.8121 C   0  0  0  0  0  0  0  0  0  0  0  0
    6.2973    3.8727   22.9123 C   0  0  0  0  0  0  0  0  0  0  0  0
    6.1938    5.2116   22.2201 N   0  0  0  0  0  0  0  0  0  0  0  0
    7.3550    5.4141   21.3103 C   0  0  0  0  0  0  0  0  0  0  0  0
    4.9650    5.4165   21.4123 C   0  0  0  0  0  0  0  0  0  0  0  0
    9.7502    3.0302   23.0374 C   0  0  0  0  0  0  0  0  0  0  0  0
   10.2304    4.1550   23.1328 O   0  0  0  0  0  0  0  0  0  0  0  0
   10.5945    1.8647   22.5714 C   0  0  0  0  0  0  0  0  0  0  0  0
   11.9810    2.0311   22.4585 C   0  0  0  0  0  0  0  0  0  0  0  0
   12.7830    0.9844   22.0446 C   0  0  0  0  0  0  0  0  0  0  0  0
   12.1953   -0.2352   21.7215 C   0  0  0  0  0  0  0  0  0  0  0  0
   13.2086   -1.5497   21.1924 Cl  0  0  0  0  0  0  0  0  0  0  0  0
   10.8279   -0.4140   21.8010 C   0  0  0  0  0  0  0  0  0  0  0  0
   10.0179    0.6150   22.3047 C   0  0  0  0  0  0  0  0  0  0  0  0
  2  1  1  1
  2  3  1  0
  3  4  1  0
  4  5  1  0
  5  6  2  0
  6  7  1  0
  7  8  2  0
  8  9  1  0
  9 10  2  0
 10 11  1  0
 11 12  2  0
 12 13  1  0
 13 14  2  0
  4 15  1  0
 15 16  2  0
 15 17  1  0
 17 18  1  1
 18 19  1  0
 19 20  1  0
 20 21  1  0
 21 22  1  0
 22 23  1  0
 22 24  1  0
 19 25  1  0
 25 26  2  0
 25 27  1  0
 27 28  2  0
 28 29  1  0
 29 30  2  0
 30 31  1  0
 30 32  1  0
 32 33  2  0
 17  2  1  0
 33 27  1  0
 14  5  1  0
 33 17  1  0
 14  9  1  0
M  CHG  1  22   1
M  END
>  <cnnaffinities>  (152) 
[6.05534, 6.23553, 6.22669, 5.83887, 6.03116]

>  <score>  (152) 
6.05534

>  <index>  (152) 
76

>  <Smiles>  (152) 
C([C@]1(C(N(c2c(nc(c3c(c(c(c(c23)[H])[H])[H])[H])[H])[H])C(=O)[C@]21C(N(C(C([N+](C([H])([H])[H])(C([H])([H])[H])[H])([H])[H])([H])[H])C(=O)c1c(c(c(Cl)c(c21)[H])[H])[H])([H])[H])([H])[H])[H])([H])([H])[H]

>  <h>  (152) 
<NA>

>  <Training>  (152) 
True

>  <Success>  (152) 
True

>  <enamine_searched>  (152) 
False

>  <enamine_id>  (152) 
nan

$$$$

     RDKit          3D

 33 36  0  0  0  0  0  0  0  0999 V2000
    6.7884   -1.5208   23.6901 N   0  0  0  0  0  0  0  0  0  0  0  0
    5.9137   -0.6018   23.0729 C   0  0  0  0  0  0  0  0  0  0  0  0
    4.6954   -0.5490   23.3497 O   0  0  0  0  0  0  0  0  0  0  0  0
   10.8802   -1.0922   23.4449 C   0  0  0  0  0  0  0  0  0  0  0  0
   10.1668   -0.7270   24.5557 C   0  0  0  0  0  0  0  0  0  0  0  0
    8.8445   -1.0025   24.5801 C   0  0  0  0  0  0  0  0  0  0  0  0
    8.1901   -1.6223   23.4626 C   0  0  0  0  0  0  0  0  0  0  0  0
    8.8892   -1.9947   22.3705 C   0  0  0  0  0  0  0  0  0  0  0  0
   10.2816   -1.7288   22.3878 C   0  0  0  0  0  0  0  0  0  0  0  0
   12.9480   -1.7405   22.4503 C   0  0  0  0  0  0  0  0  0  0  0  0
   12.3399   -0.7742   23.4417 C   0  0  0  0  0  0  0  0  0  0  0  0
   12.9025   -1.0448   24.8024 C   0  0  0  0  0  0  0  0  0  0  0  0
   12.5134    0.6206   23.0451 C   0  0  0  0  0  0  0  0  0  0  0  0
   12.6356    1.6883   22.7247 N   0  0  0  0  0  0  0  0  0  0  0  0
    6.3148   -2.6364   24.4763 C   0  0  0  0  0  0  0  0  0  0  0  0
    6.5623   -3.9788   24.0785 C   0  0  0  0  0  0  0  0  0  0  0  0
    7.4339   -4.8351   24.7012 C   0  0  0  0  0  0  0  0  0  0  0  0
    7.7068   -6.1043   24.2306 C   0  0  0  0  0  0  0  0  0  0  0  0
    7.0796   -6.4951   23.0620 C   0  0  0  0  0  0  0  0  0  0  0  0
    6.2024   -5.6505   22.3871 C   0  0  0  0  0  0  0  0  0  0  0  0
    5.5745   -6.1218   20.7966 Cl  0  0  0  0  0  0  0  0  0  0  0  0
    5.9394   -4.4055   22.8953 C   0  0  0  0  0  0  0  0  0  0  0  0
    6.4689    0.3109   22.0738 C   0  0  0  0  0  0  0  0  0  0  0  0
    5.9643    0.3349   20.7068 C   0  0  0  0  0  0  0  0  0  0  0  0
    6.5682   -0.4771   19.7843 C   0  0  0  0  0  0  0  0  0  0  0  0
    6.2590   -0.4601   18.4770 N   0  0  0  0  0  0  0  0  0  0  0  0
    5.2918    0.3844   18.0386 C   0  0  0  0  0  0  0  0  0  0  0  0
    4.6457    1.1994   18.9668 C   0  0  0  0  0  0  0  0  0  0  0  0
    3.5872    1.9833   18.4979 C   0  0  0  0  0  0  0  0  0  0  0  0
    2.8597    2.7600   19.3631 C   0  0  0  0  0  0  0  0  0  0  0  0
    3.2095    2.7338   20.7129 C   0  0  0  0  0  0  0  0  0  0  0  0
    4.2488    1.9547   21.1693 C   0  0  0  0  0  0  0  0  0  0  0  0
    4.9840    1.1795   20.2896 C   0  0  0  0  0  0  0  0  0  0  0  0
 10 11  1  0
 11 12  1  0
 11 13  1  0
 13 14  3  0
 11  4  1  0
  4  5  2  0
  5  6  1  0
  6  7  2  0
  7  1  1  0
  1 15  1  0
 15 16  1  0
 16 17  2  0
 17 18  1  0
 18 19  2  0
 19 20  1  0
 20 21  1  0
 20 22  2  0
  1  2  1  0
  2  3  2  0
  2 23  1  0
 23 24  1  0
 24 25  2  0
 25 26  1  0
 26 27  2  0
 27 28  1  0
 28 29  2  0
 29 30  1  0
 30 31  2  0
 31 32  1  0
 32 33  2  0
  7  8  1  0
  8  9  2  0
  9  4  1  0
 22 16  1  0
 33 24  1  0
 33 28  1  0
M  END
>  <minimizedAffinity>  (153) 
-7.91037

>  <CNNscore>  (153) 
0.7301700711

>  <CNNaffinity>  (153) 
7.2141828537

>  <CNN_VS>  (153) 
5.2675805092

>  <CNNaffinity_variance>  (153) 
0.0703812614

$$$$

     RDKit          3D

 40 45  0  0  0  0  0  0  0  0999 V2000
   -7.4591    3.4761  -21.8643 C   0  0  0  0  0  0  0  0  0  0  0  0
   -8.5156    2.9798  -22.7359 N   0  0  0  0  0  0  0  0  0  0  0  0
   -8.1306    2.2087  -23.7941 C   0  0  0  0  0  0  0  0  0  0  0  0
   -6.9564    1.9401  -24.0071 O   0  0  0  0  0  0  0  0  0  0  0  0
   -9.2291    1.6625  -24.7034 C   0  0  0  0  0  0  0  0  0  0  0  0
   -9.7881    0.4626  -24.1172 N   0  0  0  0  0  0  0  0  0  0  0  0
   -8.9687   -0.7402  -24.0679 C   0  0  0  0  0  0  0  0  0  0  0  0
   -9.2241   -1.5592  -22.7755 C   0  0  2  0  0  0  0  0  0  0  0  0
   -8.6340   -0.7907  -21.5671 C   0  0  0  0  0  0  0  0  0  0  0  0
   -9.1017    0.1929  -21.0299 O   0  0  0  0  0  0  0  0  0  0  0  0
   -7.4489   -1.3906  -21.2010 N   0  0  0  0  0  0  0  0  0  0  0  0
   -6.6324   -0.8248  -20.1866 C   0  0  0  0  0  0  0  0  0  0  0  0
   -6.9448   -1.0514  -18.8698 C   0  0  0  0  0  0  0  0  0  0  0  0
   -6.2472   -0.5679  -17.8125 N   0  0  0  0  0  0  0  0  0  0  0  0
   -5.2038    0.1831  -18.0825 C   0  0  0  0  0  0  0  0  0  0  0  0
   -4.7720    0.5119  -19.3996 C   0  0  0  0  0  0  0  0  0  0  0  0
   -3.6458    1.3493  -19.6282 C   0  0  0  0  0  0  0  0  0  0  0  0
   -3.2585    1.6566  -20.9041 C   0  0  0  0  0  0  0  0  0  0  0  0
   -3.9786    1.1477  -22.0068 C   0  0  0  0  0  0  0  0  0  0  0  0
   -5.0798    0.3455  -21.8144 C   0  0  0  0  0  0  0  0  0  0  0  0
   -5.5013   -0.0034  -20.4997 C   0  0  0  0  0  0  0  0  0  0  0  0
   -7.0989   -2.5442  -22.0101 C   0  0  0  0  0  0  0  0  0  0  0  0
   -8.4017   -2.8812  -22.7537 C   0  0  2  0  0  0  0  0  0  0  0  0
   -8.1197   -3.5609  -24.0961 C   0  0  0  0  0  0  0  0  0  0  0  0
   -9.3321   -3.9392  -24.7751 N   0  0  0  0  0  0  0  0  0  0  0  0
   -9.3548   -4.5568  -25.9945 C   0  0  0  0  0  0  0  0  0  0  0  0
   -8.1792   -4.8575  -26.7310 C   0  0  0  0  0  0  0  0  0  0  0  0
   -8.2185   -5.4187  -27.9298 N   0  0  0  0  0  0  0  0  0  0  0  0
   -9.4283   -5.7196  -28.4096 C   0  0  0  0  0  0  0  0  0  0  0  0
  -10.5762   -5.4531  -27.6782 C   0  0  0  0  0  0  0  0  0  0  0  0
  -10.5577   -4.8636  -26.4836 N   0  0  0  0  0  0  0  0  0  0  0  0
  -10.7268   -1.7241  -22.6104 C   0  0  0  0  0  0  0  0  0  0  0  0
  -11.2708   -2.7192  -21.7888 C   0  0  0  0  0  0  0  0  0  0  0  0
  -12.6351   -2.7520  -21.5555 C   0  0  0  0  0  0  0  0  0  0  0  0
  -13.3013   -3.8532  -20.4000 Cl  0  0  0  0  0  0  0  0  0  0  0  0
  -13.5172   -1.8625  -22.1611 C   0  0  0  0  0  0  0  0  0  0  0  0
  -12.9902   -0.8753  -22.9595 C   0  0  0  0  0  0  0  0  0  0  0  0
  -11.6149   -0.7812  -23.1477 C   0  0  0  0  0  0  0  0  0  0  0  0
  -11.1259    0.4356  -23.8600 C   0  0  0  0  0  0  0  0  0  0  0  0
  -11.8784    1.3522  -24.1639 O   0  0  0  0  0  0  0  0  0  0  0  0
  1  2  1  0
  2  3  1  0
  3  4  2  0
  3  5  1  0
  5  6  1  0
  6  7  1  0
  8  7  1  6
  8  9  1  0
  9 10  2  0
  9 11  1  0
 11 12  1  0
 12 13  2  0
 13 14  1  0
 14 15  2  0
 15 16  1  0
 16 17  2  0
 17 18  1  0
 18 19  2  0
 19 20  1  0
 20 21  2  0
 11 22  1  0
 22 23  1  0
 23 24  1  6
 24 25  1  0
 25 26  1  0
 26 27  2  0
 27 28  1  0
 28 29  2  0
 29 30  1  0
 30 31  2  0
  8 32  1  0
 32 33  2  0
 33 34  1  0
 34 35  1  0
 34 36  2  0
 36 37  1  0
 37 38  2  0
 38 39  1  0
 39 40  2  0
 39  6  1  0
 23  8  1  0
 31 26  1  0
 38 32  1  0
 21 12  1  0
 21 16  1  0
M  END
>  <cnnaffinities>  (154) 
[6.54157, 7.13621, 6.74452]

>  <score>  (154) 
6.54157

>  <index>  (154) 
75

>  <Smiles>  (154) 
C(N(C(=O)C(N1C([C@@]2(C(=O)N(c3c(nc(c4c(c(c(c(c34)[H])[H])[H])[H])[H])[H])C([C@@]2(C(N(c2c(nc(c(n2)[H])[H])[H])[H])([H])[H])[H])([H])[H])c2c(c(Cl)c(c(c2C1=O)[H])[H])[H])([H])[H])([H])[H])[H])([H])([H])[H]

>  <h>  (154) 
<NA>

>  <Training>  (154) 
True

>  <Success>  (154) 
True

>  <enamine_searched>  (154) 
False

>  <enamine_id>  (154) 
nan

$$$$

     RDKit          3D

 34 35  0  0  0  0  0  0  0  0999 V2000
    9.5415   -0.6798   23.1281 C   0  0  0  0  0  0  0  0  0  0  0  0
    9.4948    0.5346   22.7102 O   0  0  0  0  0  0  0  0  0  0  0  0
    8.5895   -1.6006   22.7333 N   0  0  0  0  0  0  0  0  0  0  0  0
    8.5943   -3.0274   23.1019 C   0  0  0  0  0  0  0  0  0  0  0  0
    7.2224   -3.2300   23.5984 C   0  0  1  0  0  0  0  0  0  0  0  0
    6.4187   -2.0612   23.0268 C   0  0  0  0  0  0  0  0  0  0  0  0
    7.3970   -1.5455   21.9616 C   0  0  1  0  0  0  0  0  0  0  0  0
    6.5713   -4.5427   23.2000 C   0  0  0  0  0  0  0  0  0  0  0  0
    6.3621   -5.2889   24.3189 F   0  0  0  0  0  0  0  0  0  0  0  0
    7.3874   -5.1385   22.2636 F   0  0  0  0  0  0  0  0  0  0  0  0
    5.3908   -4.1666   22.5645 F   0  0  0  0  0  0  0  0  0  0  0  0
    6.9816   -0.3404   21.3211 C   0  0  0  0  0  0  0  0  0  0  0  0
    7.0096   -0.1277   20.1095 O   0  0  0  0  0  0  0  0  0  0  0  0
    6.4685    0.7576   22.1048 N   0  0  0  0  0  0  0  0  0  0  0  0
    6.0453    1.9875   21.4094 C   0  0  2  0  0  0  0  0  0  0  0  0
    6.7802    3.1728   22.0084 C   0  0  0  0  0  0  0  0  0  0  0  0
    8.2101    3.0678   21.9646 N   0  0  0  0  0  0  0  0  0  0  0  0
    4.5712    2.1119   21.4228 C   0  0  0  0  0  0  0  0  0  0  0  0
    4.0533    2.9888   20.3040 C   0  0  2  0  0  0  0  0  0  0  0  0
    2.7803    3.7097   20.7053 C   0  0  0  0  0  0  0  0  0  0  0  0
    1.9269    3.7749   19.4758 C   0  0  0  0  0  0  0  0  0  0  0  0
    2.2706    2.5816   18.7649 N   0  0  0  0  0  0  0  0  0  0  0  0
    3.5717    2.1649   19.1407 C   0  0  0  0  0  0  0  0  0  0  0  0
    4.1796    1.2442   18.5515 O   0  0  0  0  0  0  0  0  0  0  0  0
   10.7013   -0.8916   24.0272 C   0  0  1  0  0  0  0  0  0  0  0  0
    9.8539   -2.3962   25.9220 C   0  0  0  0  0  0  0  0  0  0  0  0
    9.0686   -1.5222   26.4043 O   0  0  0  0  0  0  0  0  0  0  0  0
   10.6316   -2.1255   24.7931 N   0  0  0  0  0  0  0  0  0  0  0  0
   10.9076   -4.5563   26.4986 C   0  0  0  0  0  0  0  0  0  0  0  0
    9.8651   -3.6086   26.5959 O   0  0  0  0  0  0  0  0  0  0  0  0
   12.0136   -0.8894   23.2325 C   0  0  0  0  0  0  0  0  0  0  0  0
   12.9861   -1.7575   23.9907 C   0  0  0  0  0  0  0  0  0  0  0  0
   12.5941    0.4633   23.0258 C   0  0  0  0  0  0  0  0  0  0  0  0
   11.7736   -1.4722   21.8428 C   0  0  0  0  0  0  0  0  0  0  0  0
 29 30  1  0
 30 26  1  0
 26 27  2  0
 26 28  1  0
 25 28  1  6
 25  1  1  0
  1  2  2  0
  1  3  1  0
  3  4  1  0
  4  5  1  0
  5  8  1  6
  8  9  1  0
  8 10  1  0
  8 11  1  0
  5  6  1  0
  6  7  1  0
  7 12  1  1
 12 13  2  0
 12 14  1  0
 14 15  1  0
 15 16  1  1
 16 17  1  0
 15 18  1  0
 19 18  1  1
 19 20  1  0
 20 21  1  0
 21 22  1  0
 22 23  1  0
 23 24  2  0
 25 31  1  0
 31 32  1  0
 31 33  1  0
 31 34  1  0
  7  3  1  0
 23 19  1  0
M  CHG  1  17   1
M  END
>  <minimizedAffinity>  (155) 
-6.69319

>  <CNNscore>  (155) 
0.4342820942

>  <CNNaffinity>  (155) 
6.5623116493

>  <CNN_VS>  (155) 
2.8498945236

>  <CNNaffinity_variance>  (155) 
0.1835929900

$$$$

     RDKit          3D

 36 41  0  0  0  0  0  0  0  0999 V2000
   -7.9581   -3.5470  -24.1450 C   0  0  0  0  0  0  0  0  0  0  0  0
   -8.3017   -2.7854  -22.8593 C   0  0  1  0  0  0  0  0  0  0  0  0
   -7.0741   -2.5681  -21.9489 C   0  0  0  0  0  0  0  0  0  0  0  0
   -7.4145   -1.3735  -21.1970 N   0  0  0  0  0  0  0  0  0  0  0  0
   -6.6055   -0.8095  -20.1730 C   0  0  0  0  0  0  0  0  0  0  0  0
   -6.9142   -1.0443  -18.8587 C   0  0  0  0  0  0  0  0  0  0  0  0
   -6.2140   -0.5545  -17.8047 N   0  0  0  0  0  0  0  0  0  0  0  0
   -5.1755    0.2021  -18.0771 C   0  0  0  0  0  0  0  0  0  0  0  0
   -4.7389    0.5296  -19.3934 C   0  0  0  0  0  0  0  0  0  0  0  0
   -3.6106    1.3639  -19.6348 C   0  0  0  0  0  0  0  0  0  0  0  0
   -3.2199    1.6540  -20.9143 C   0  0  0  0  0  0  0  0  0  0  0  0
   -3.9306    1.1259  -22.0108 C   0  0  0  0  0  0  0  0  0  0  0  0
   -5.0299    0.3243  -21.8024 C   0  0  0  0  0  0  0  0  0  0  0  0
   -5.4693    0.0049  -20.4854 C   0  0  0  0  0  0  0  0  0  0  0  0
   -8.4870   -0.6767  -21.7079 C   0  0  0  0  0  0  0  0  0  0  0  0
   -8.9658    0.3107  -21.1843 O   0  0  0  0  0  0  0  0  0  0  0  0
   -8.9339   -1.3673  -23.0234 C   0  0  1  0  0  0  0  0  0  0  0  0
   -8.3307   -0.6349  -24.2514 C   0  0  0  0  0  0  0  0  0  0  0  0
   -8.8566    0.7048  -24.3919 N   0  0  0  0  0  0  0  0  0  0  0  0
   -7.9590    1.8353  -24.5535 C   0  0  0  0  0  0  0  0  0  0  0  0
   -7.7670    2.5941  -23.2386 C   0  0  0  0  0  0  0  0  0  0  0  0
   -6.8312    3.7726  -23.3871 N   0  0  0  0  0  0  0  0  0  0  0  0
   -7.4782    5.0082  -24.0023 C   0  0  0  0  0  0  0  0  0  0  0  0
   -8.3763    5.7426  -23.0106 C   0  0  0  0  0  0  0  0  0  0  0  0
   -7.6703    6.0935  -21.8433 O   0  0  0  0  0  0  0  0  0  0  0  0
   -7.1399    4.9547  -21.2021 C   0  0  0  0  0  0  0  0  0  0  0  0
   -6.1803    4.1814  -22.0887 C   0  0  0  0  0  0  0  0  0  0  0  0
  -10.1988    0.9389  -24.3431 C   0  0  0  0  0  0  0  0  0  0  0  0
  -10.7021    1.9982  -24.6942 O   0  0  0  0  0  0  0  0  0  0  0  0
  -11.0320   -0.1895  -23.7982 C   0  0  0  0  0  0  0  0  0  0  0  0
  -12.4179   -0.0668  -23.8791 C   0  0  0  0  0  0  0  0  0  0  0  0
  -13.2374   -1.0296  -23.3250 C   0  0  0  0  0  0  0  0  0  0  0  0
  -12.6563   -2.1061  -22.6569 C   0  0  0  0  0  0  0  0  0  0  0  0
  -13.6889   -3.2896  -21.9060 Cl  0  0  0  0  0  0  0  0  0  0  0  0
  -11.2822   -2.2435  -22.5613 C   0  0  0  0  0  0  0  0  0  0  0  0
  -10.4433   -1.2953  -23.1616 C   0  0  0  0  0  0  0  0  0  0  0  0
  2  1  1  6
  2  3  1  0
  3  4  1  0
  4  5  1  0
  5  6  2  0
  6  7  1  0
  7  8  2  0
  8  9  1  0
  9 10  2  0
 10 11  1  0
 11 12  2  0
 12 13  1  0
 13 14  2  0
  4 15  1  0
 15 16  2  0
 15 17  1  0
 17 18  1  6
 18 19  1  0
 19 20  1  0
 20 21  1  0
 21 22  1  0
 22 23  1  0
 23 24  1  0
 24 25  1  0
 25 26  1  0
 26 27  1  0
 19 28  1  0
 28 29  2  0
 28 30  1  0
 30 31  2  0
 31 32  1  0
 32 33  2  0
 33 34  1  0
 33 35  1  0
 35 36  2  0
 17  2  1  0
 27 22  1  0
 36 30  1  0
 14  5  1  0
 36 17  1  0
 14  9  1  0
M  CHG  1  22   1
M  END
>  <cnnaffinities>  (156) 
[6.50788, 6.57095, 6.77603, 6.81621]

>  <score>  (156) 
6.50788

>  <index>  (156) 
76

>  <Smiles>  (156) 
C([C@]1(C(N(c2c(nc(c3c(c(c(c(c23)[H])[H])[H])[H])[H])[H])C(=O)[C@]21C(N(C(C([N+]1(C(C(OC(C1([H])[H])([H])[H])([H])[H])([H])[H])[H])([H])[H])([H])[H])C(=O)c1c(c(c(Cl)c(c21)[H])[H])[H])([H])[H])([H])[H])[H])([H])([H])[H]

>  <h>  (156) 
<NA>

>  <Training>  (156) 
True

>  <Success>  (156) 
True

>  <enamine_searched>  (156) 
False

>  <enamine_id>  (156) 
nan

$$$$

     RDKit          3D

 34 39  0  0  0  0  0  0  0  0999 V2000
   -7.8772   -3.5903  -24.1092 C   0  0  0  0  0  0  0  0  0  0  0  0
   -8.2850   -2.8482  -22.8272 C   0  0  1  0  0  0  0  0  0  0  0  0
   -7.0792   -2.6109  -21.8894 C   0  0  0  0  0  0  0  0  0  0  0  0
   -7.4058   -1.3807  -21.1965 N   0  0  0  0  0  0  0  0  0  0  0  0
   -6.6020   -0.8094  -20.1712 C   0  0  0  0  0  0  0  0  0  0  0  0
   -6.9082   -1.0436  -18.8572 C   0  0  0  0  0  0  0  0  0  0  0  0
   -6.2072   -0.5514  -17.8038 N   0  0  0  0  0  0  0  0  0  0  0  0
   -5.1724    0.2085  -18.0743 C   0  0  0  0  0  0  0  0  0  0  0  0
   -4.7354    0.5342  -19.3915 C   0  0  0  0  0  0  0  0  0  0  0  0
   -3.6068    1.3662  -19.6358 C   0  0  0  0  0  0  0  0  0  0  0  0
   -3.2103    1.6427  -20.9133 C   0  0  0  0  0  0  0  0  0  0  0  0
   -3.9147    1.0909  -22.0068 C   0  0  0  0  0  0  0  0  0  0  0  0
   -5.0057    0.2797  -21.7976 C   0  0  0  0  0  0  0  0  0  0  0  0
   -5.4582   -0.0047  -20.4815 C   0  0  0  0  0  0  0  0  0  0  0  0
   -8.4338   -0.6633  -21.7648 C   0  0  0  0  0  0  0  0  0  0  0  0
   -8.8285    0.3987  -21.3316 O   0  0  0  0  0  0  0  0  0  0  0  0
   -8.9708   -1.4505  -22.9962 C   0  0  1  0  0  0  0  0  0  0  0  0
   -8.5195   -0.7782  -24.3215 C   0  0  0  0  0  0  0  0  0  0  0  0
   -9.2025    0.4715  -24.5713 N   0  0  0  0  0  0  0  0  0  0  0  0
   -8.4383    1.6649  -24.9033 C   0  0  0  0  0  0  0  0  0  0  0  0
   -8.1396    2.5193  -23.7045 C   0  0  0  0  0  0  0  0  0  0  0  0
   -8.9547    3.3792  -23.0599 C   0  0  0  0  0  0  0  0  0  0  0  0
   -8.2685    3.9263  -22.0252 O   0  0  0  0  0  0  0  0  0  0  0  0
   -7.0624    3.3384  -22.0705 C   0  0  0  0  0  0  0  0  0  0  0  0
   -6.9111    2.5076  -23.0518 N   0  0  0  0  0  0  0  0  0  0  0  0
  -10.5533    0.6074  -24.4172 C   0  0  0  0  0  0  0  0  0  0  0  0
  -11.1526    1.5998  -24.8167 O   0  0  0  0  0  0  0  0  0  0  0  0
  -11.2372   -0.5068  -23.6797 C   0  0  0  0  0  0  0  0  0  0  0  0
  -12.6327   -0.5137  -23.6279 C   0  0  0  0  0  0  0  0  0  0  0  0
  -13.3011   -1.4093  -22.8165 C   0  0  0  0  0  0  0  0  0  0  0  0
  -12.5494   -2.2774  -22.0333 C   0  0  0  0  0  0  0  0  0  0  0  0
  -13.1905   -3.1063  -21.1927 F   0  0  0  0  0  0  0  0  0  0  0  0
  -11.1721   -2.3049  -22.0786 C   0  0  0  0  0  0  0  0  0  0  0  0
  -10.4914   -1.4532  -22.9585 C   0  0  0  0  0  0  0  0  0  0  0  0
  2  1  1  6
  2  3  1  0
  3  4  1  0
  4  5  1  0
  5  6  2  0
  6  7  1  0
  7  8  2  0
  8  9  1  0
  9 10  2  0
 10 11  1  0
 11 12  2  0
 12 13  1  0
 13 14  2  0
  4 15  1  0
 15 16  2  0
 15 17  1  0
 17 18  1  6
 18 19  1  0
 19 20  1  0
 20 21  1  0
 21 22  2  0
 22 23  1  0
 23 24  1  0
 24 25  2  0
 19 26  1  0
 26 27  2  0
 26 28  1  0
 28 29  2  0
 29 30  1  0
 30 31  2  0
 31 32  1  0
 31 33  1  0
 33 34  2  0
 17  2  1  0
 25 21  1  0
 34 28  1  0
 14  5  1  0
 34 17  1  0
 14  9  1  0
M  END
>  <cnnaffinities>  (157) 
[6.1734, 6.2808]

>  <score>  (157) 
6.1734

>  <index>  (157) 
65

>  <Smiles>  (157) 
C([C@]1(C(N(c2c(nc(c3c(c(c(c(c23)[H])[H])[H])[H])[H])[H])C(=O)[C@]21C(N(C(c1c(oc(n1)[H])[H])([H])[H])C(=O)c1c(c(c(F)c(c21)[H])[H])[H])([H])[H])([H])[H])[H])([H])([H])[H]

>  <h>  (157) 
<NA>

>  <Training>  (157) 
True

>  <Success>  (157) 
True

>  <enamine_searched>  (157) 
False

>  <enamine_id>  (157) 
nan

$$$$

     RDKit          3D

 20 22  0  0  0  0  0  0  0  0999 V2000
    9.8327   -3.8240   25.9584 C   0  0  0  0  0  0  0  0  0  0  0  0
    9.2975   -3.4849   24.5686 C   0  0  0  0  0  0  0  0  0  0  0  0
    9.3965   -1.9951   24.2691 C   0  0  0  0  0  0  0  0  0  0  0  0
    8.8500   -1.6445   22.8882 C   0  0  0  0  0  0  0  0  0  0  0  0
    7.5005   -2.1539   22.7090 N   0  0  0  0  0  0  0  0  0  0  0  0
    6.4987   -1.4904   22.0282 C   0  0  0  0  0  0  0  0  0  0  0  0
    5.3283   -1.7975   22.1529 O   0  0  0  0  0  0  0  0  0  0  0  0
    6.9026   -0.3594   21.0565 C   0  0  0  0  0  0  0  0  0  0  0  0
    5.8710   -0.1719   19.9717 C   0  0  0  0  0  0  0  0  0  0  0  0
    6.0333   -0.8040   18.7687 C   0  0  0  0  0  0  0  0  0  0  0  0
    5.2181   -0.6775   17.6903 N   0  0  0  0  0  0  0  0  0  0  0  0
    4.1614    0.0857   17.8303 C   0  0  0  0  0  0  0  0  0  0  0  0
    3.8195    0.7434   19.0421 C   0  0  0  0  0  0  0  0  0  0  0  0
    2.6332    1.5078   19.1712 C   0  0  0  0  0  0  0  0  0  0  0  0
    2.3168    2.1247   20.3502 C   0  0  0  0  0  0  0  0  0  0  0  0
    3.1920    2.0139   21.4523 C   0  0  0  0  0  0  0  0  0  0  0  0
    4.3501    1.2808   21.3537 C   0  0  0  0  0  0  0  0  0  0  0  0
    4.6956    0.6175   20.1474 C   0  0  0  0  0  0  0  0  0  0  0  0
    7.3082   -3.5664   23.0233 C   0  0  0  0  0  0  0  0  0  0  0  0
    7.8472   -3.9196   24.4005 C   0  0  0  0  0  0  0  0  0  0  0  0
  1  2  1  0
  2  3  1  0
  3  4  1  0
  4  5  1  0
  5  6  1  0
  6  7  2  0
  6  8  1  0
  8  9  1  0
  9 10  2  0
 10 11  1  0
 11 12  2  0
 12 13  1  0
 13 14  2  0
 14 15  1  0
 15 16  2  0
 16 17  1  0
 17 18  2  0
  5 19  1  0
 19 20  1  0
 20  2  1  0
 18  9  1  0
 18 13  1  0
M  END
>  <cnnaffinities>  (158) 
[4.91101, 4.81519]

>  <score>  (158) 
4.91101

>  <index>  (158) 
79

>  <Smiles>  (158) 
C(C1(C(C(N(C(=O)C(c2c(nc(c3c(c(c(c(c23)[H])[H])[H])[H])[H])[H])([H])[H])C(C1([H])[H])([H])[H])([H])[H])([H])[H])[H])([H])([H])[H]

>  <h>  (158) 
<NA>

>  <Training>  (158) 
True

>  <Success>  (158) 
True

>  <enamine_searched>  (158) 
False

>  <enamine_id>  (158) 
nan

$$$$

     RDKit          3D

 35 40  0  0  0  0  0  0  0  0999 V2000
   10.2383   -0.7232   22.3017 C   0  0  0  0  0  0  0  0  0  0  0  0
    8.7739   -0.3068   22.2867 C   0  0  1  0  0  0  0  0  0  0  0  0
    8.2274   -0.1892   20.8571 C   0  0  0  0  0  0  0  0  0  0  0  0
    6.8031   -0.3843   21.0326 N   0  0  0  0  0  0  0  0  0  0  0  0
    5.8815   -0.1771   19.9852 C   0  0  0  0  0  0  0  0  0  0  0  0
    6.1237   -0.7277   18.7518 C   0  0  0  0  0  0  0  0  0  0  0  0
    5.3178   -0.5909   17.6714 N   0  0  0  0  0  0  0  0  0  0  0  0
    4.2332    0.1306   17.8242 C   0  0  0  0  0  0  0  0  0  0  0  0
    3.8777    0.7847   19.0373 C   0  0  0  0  0  0  0  0  0  0  0  0
    2.6983    1.5683   19.1389 C   0  0  0  0  0  0  0  0  0  0  0  0
    2.3812    2.1992   20.3100 C   0  0  0  0  0  0  0  0  0  0  0  0
    3.2418    2.0972   21.4265 C   0  0  0  0  0  0  0  0  0  0  0  0
    4.3935    1.3549   21.3525 C   0  0  0  0  0  0  0  0  0  0  0  0
    4.7256    0.6509   20.1587 C   0  0  0  0  0  0  0  0  0  0  0  0
    6.4902   -1.0421   22.2027 C   0  0  0  0  0  0  0  0  0  0  0  0
    5.3720   -1.4083   22.4947 O   0  0  0  0  0  0  0  0  0  0  0  0
    7.7766   -1.2375   23.0423 C   0  0  1  0  0  0  0  0  0  0  0  0
    8.2610   -2.7163   22.9664 C   0  0  0  0  0  0  0  0  0  0  0  0
    7.4570   -3.6276   23.7646 N   0  0  0  0  0  0  0  0  0  0  0  0
    7.0601   -4.9488   23.2560 C   0  0  0  0  0  0  0  0  0  0  0  0
    5.5914   -5.0452   22.9635 C   0  0  0  0  0  0  0  0  0  0  0  0
    4.5659   -5.5070   23.7660 C   0  0  0  0  0  0  0  0  0  0  0  0
    3.4021   -5.1478   23.0768 C   0  0  0  0  0  0  0  0  0  0  0  0
    3.6834   -4.5602   21.9230 N   0  0  0  0  0  0  0  0  0  0  0  0
    5.0158   -4.5204   21.8510 N   0  0  0  0  0  0  0  0  0  0  0  0
    5.6439   -4.0241   20.6420 C   0  0  0  0  0  0  0  0  0  0  0  0
    7.0524   -3.3126   25.0329 C   0  0  0  0  0  0  0  0  0  0  0  0
    6.5793   -4.1565   25.7898 O   0  0  0  0  0  0  0  0  0  0  0  0
    7.1672   -1.8758   25.4327 C   0  0  0  0  0  0  0  0  0  0  0  0
    6.8426   -1.5549   26.7524 C   0  0  0  0  0  0  0  0  0  0  0  0
    6.8252   -0.2424   27.1739 C   0  0  0  0  0  0  0  0  0  0  0  0
    7.1181    0.7424   26.2385 C   0  0  0  0  0  0  0  0  0  0  0  0
    7.0788    2.0293   26.6264 F   0  0  0  0  0  0  0  0  0  0  0  0
    7.4372    0.4513   24.9262 C   0  0  0  0  0  0  0  0  0  0  0  0
    7.5023   -0.8830   24.4993 C   0  0  0  0  0  0  0  0  0  0  0  0
  2  1  1  6
  2  3  1  0
  3  4  1  0
  4  5  1  0
  5  6  2  0
  6  7  1  0
  7  8  2  0
  8  9  1  0
  9 10  2  0
 10 11  1  0
 11 12  2  0
 12 13  1  0
 13 14  2  0
  4 15  1  0
 15 16  2  0
 15 17  1  0
 17 18  1  1
 18 19  1  0
 19 20  1  0
 20 21  1  0
 21 22  2  0
 22 23  1  0
 23 24  2  0
 24 25  1  0
 25 26  1  0
 19 27  1  0
 27 28  2  0
 27 29  1  0
 29 30  2  0
 30 31  1  0
 31 32  2  0
 32 33  1  0
 32 34  1  0
 34 35  2  0
 17  2  1  0
 25 21  1  0
 35 29  1  0
 14  5  1  0
 35 17  1  0
 14  9  1  0
M  END
>  <cnnaffinities>  (159) 
[6.034, 6.10316, 6.0899, 6.00734, 6.07046, 6.06325, 6.07833, 6.15862, 6.17164]

>  <score>  (159) 
6.034

>  <index>  (159) 
80

>  <Smiles>  (159) 
C([C@]1(C(N(c2c(nc(c3c(c(c(c(c23)[H])[H])[H])[H])[H])[H])C(=O)[C@]21C(N(C(c1c(c(nn1C([H])([H])[H])[H])[H])([H])[H])C(=O)c1c(c(c(F)c(c21)[H])[H])[H])([H])[H])([H])[H])[H])([H])([H])[H]

>  <h>  (159) 
<NA>

>  <Training>  (159) 
True

>  <Success>  (159) 
True

>  <enamine_searched>  (159) 
False

>  <enamine_id>  (159) 
nan

$$$$

     RDKit          3D

 35 40  0  0  0  0  0  0  0  0999 V2000
    4.8150    4.7883   20.5126 C   0  0  0  0  0  0  0  0  0  0  0  0
    5.9626    4.7195   21.4574 C   0  0  0  0  0  0  0  0  0  0  0  0
    6.1736    4.0177   22.5294 N   0  0  0  0  0  0  0  0  0  0  0  0
    7.4506    4.4019   22.9439 C   0  0  0  0  0  0  0  0  0  0  0  0
    8.1340    3.7568   24.1054 C   0  0  0  0  0  0  0  0  0  0  0  0
    8.8566    2.5458   23.7100 N   0  0  0  0  0  0  0  0  0  0  0  0
    8.2280    1.2394   23.8570 C   0  0  0  0  0  0  0  0  0  0  0  0
    8.4709    0.2881   22.6439 C   0  0  2  0  0  0  0  0  0  0  0  0
    7.6734    0.7384   21.3964 C   0  0  0  0  0  0  0  0  0  0  0  0
    7.8028    1.7685   20.7756 O   0  0  0  0  0  0  0  0  0  0  0  0
    6.8124   -0.2786   21.0435 N   0  0  0  0  0  0  0  0  0  0  0  0
    5.8936   -0.1253   19.9814 C   0  0  0  0  0  0  0  0  0  0  0  0
    6.0887   -0.7631   18.7836 C   0  0  0  0  0  0  0  0  0  0  0  0
    5.2881   -0.6236   17.7024 N   0  0  0  0  0  0  0  0  0  0  0  0
    4.2312    0.1455   17.8346 C   0  0  0  0  0  0  0  0  0  0  0  0
    3.8800    0.8212   19.0375 C   0  0  0  0  0  0  0  0  0  0  0  0
    2.6978    1.6002   19.1498 C   0  0  0  0  0  0  0  0  0  0  0  0
    2.3507    2.1696   20.3451 C   0  0  0  0  0  0  0  0  0  0  0  0
    3.1927    2.0275   21.4701 C   0  0  0  0  0  0  0  0  0  0  0  0
    4.3617    1.3140   21.3771 C   0  0  0  0  0  0  0  0  0  0  0  0
    4.7300    0.6828   20.1563 C   0  0  0  0  0  0  0  0  0  0  0  0
    7.1434   -1.5482   21.6483 C   0  0  0  0  0  0  0  0  0  0  0  0
    7.9244   -1.1577   22.9225 C   0  0  2  0  0  0  0  0  0  0  0  0
    7.0611   -1.3304   24.1834 C   0  0  0  0  0  0  0  0  0  0  0  0
    9.9559    0.3337   22.2926 C   0  0  0  0  0  0  0  0  0  0  0  0
   10.6082   -0.7700   21.7281 C   0  0  0  0  0  0  0  0  0  0  0  0
   11.9740   -0.7332   21.5292 C   0  0  0  0  0  0  0  0  0  0  0  0
   12.5917   -1.8401   21.0717 F   0  0  0  0  0  0  0  0  0  0  0  0
   12.7287    0.3991   21.7998 C   0  0  0  0  0  0  0  0  0  0  0  0
   12.0759    1.5248   22.2592 C   0  0  0  0  0  0  0  0  0  0  0  0
   10.7037    1.4980   22.5265 C   0  0  0  0  0  0  0  0  0  0  0  0
   10.0733    2.7270   23.1093 C   0  0  0  0  0  0  0  0  0  0  0  0
   10.6298    3.8192   23.0752 O   0  0  0  0  0  0  0  0  0  0  0  0
    7.9327    5.3305   22.0925 C   0  0  0  0  0  0  0  0  0  0  0  0
    6.9921    5.5478   21.1362 O   0  0  0  0  0  0  0  0  0  0  0  0
  1  2  1  0
  2  3  2  0
  3  4  1  0
  4  5  1  0
  5  6  1  0
  6  7  1  0
  8  7  1  1
  8  9  1  0
  9 10  2  0
  9 11  1  0
 11 12  1  0
 12 13  2  0
 13 14  1  0
 14 15  2  0
 15 16  1  0
 16 17  2  0
 17 18  1  0
 18 19  2  0
 19 20  1  0
 20 21  2  0
 11 22  1  0
 22 23  1  0
 23 24  1  1
  8 25  1  0
 25 26  2  0
 26 27  1  0
 27 28  1  0
 27 29  2  0
 29 30  1  0
 30 31  2  0
 31 32  1  0
 32 33  2  0
  4 34  2  0
 34 35  1  0
 35  2  1  0
 32  6  1  0
 23  8  1  0
 31 25  1  0
 21 12  1  0
 21 16  1  0
M  END
>  <cnnaffinities>  (160) 
[6.18525, 6.07397]

>  <score>  (160) 
6.18525

>  <index>  (160) 
81

>  <Smiles>  (160) 
C(c1nc(C(N2C([C@@]3(C(=O)N(c4c(nc(c5c(c(c(c(c45)[H])[H])[H])[H])[H])[H])C([C@@]3(C([H])([H])[H])[H])([H])[H])c3c(c(F)c(c(c3C2=O)[H])[H])[H])([H])[H])([H])[H])c(o1)[H])([H])([H])[H]

>  <h>  (160) 
<NA>

>  <Training>  (160) 
True

>  <Success>  (160) 
True

>  <enamine_searched>  (160) 
False

>  <enamine_id>  (160) 
nan

$$$$

     RDKit          3D

 33 37  0  0  0  0  0  0  0  0999 V2000
   -7.2922    3.4538  -21.9141 C   0  0  0  0  0  0  0  0  0  0  0  0
   -8.1250    2.9740  -23.0018 N   0  0  0  0  0  0  0  0  0  0  0  0
   -7.5474    2.2541  -23.9943 C   0  0  0  0  0  0  0  0  0  0  0  0
   -6.3330    2.1185  -24.0844 O   0  0  0  0  0  0  0  0  0  0  0  0
   -8.4984    1.6277  -25.0227 C   0  0  0  0  0  0  0  0  0  0  0  0
   -9.2439    0.4895  -24.5157 N   0  0  0  0  0  0  0  0  0  0  0  0
   -8.5577   -0.7717  -24.3163 C   0  0  0  0  0  0  0  0  0  0  0  0
   -8.9839   -1.4555  -22.9905 C   0  0  2  0  0  0  0  0  0  0  0  0
   -8.4360   -0.6635  -21.7745 C   0  0  0  0  0  0  0  0  0  0  0  0
   -8.8238    0.4120  -21.3603 O   0  0  0  0  0  0  0  0  0  0  0  0
   -7.4107   -1.3771  -21.1984 N   0  0  0  0  0  0  0  0  0  0  0  0
   -6.6081   -0.8043  -20.1736 C   0  0  0  0  0  0  0  0  0  0  0  0
   -6.9092   -1.0420  -18.8572 C   0  0  0  0  0  0  0  0  0  0  0  0
   -6.2078   -0.5510  -17.8048 N   0  0  0  0  0  0  0  0  0  0  0  0
   -5.1698    0.2077  -18.0735 C   0  0  0  0  0  0  0  0  0  0  0  0
   -4.7337    0.5324  -19.3904 C   0  0  0  0  0  0  0  0  0  0  0  0
   -3.6036    1.3624  -19.6358 C   0  0  0  0  0  0  0  0  0  0  0  0
   -3.2121    1.6482  -20.9167 C   0  0  0  0  0  0  0  0  0  0  0  0
   -3.9305    1.1143  -22.0113 C   0  0  0  0  0  0  0  0  0  0  0  0
   -5.0266    0.3115  -21.7984 C   0  0  0  0  0  0  0  0  0  0  0  0
   -5.4681    0.0068  -20.4814 C   0  0  0  0  0  0  0  0  0  0  0  0
   -7.0940   -2.6182  -21.8768 C   0  0  0  0  0  0  0  0  0  0  0  0
   -8.2975   -2.8522  -22.8204 C   0  0  2  0  0  0  0  0  0  0  0  0
   -7.8837   -3.5958  -24.0999 C   0  0  0  0  0  0  0  0  0  0  0  0
  -10.5037   -1.4593  -22.9225 C   0  0  0  0  0  0  0  0  0  0  0  0
  -11.1615   -2.2892  -22.0050 C   0  0  0  0  0  0  0  0  0  0  0  0
  -12.5411   -2.2754  -21.9234 C   0  0  0  0  0  0  0  0  0  0  0  0
  -13.3479   -3.3109  -20.7811 Cl  0  0  0  0  0  0  0  0  0  0  0  0
  -13.3072   -1.4246  -22.7189 C   0  0  0  0  0  0  0  0  0  0  0  0
  -12.6601   -0.5455  -23.5646 C   0  0  0  0  0  0  0  0  0  0  0  0
  -11.2665   -0.5276  -23.6398 C   0  0  0  0  0  0  0  0  0  0  0  0
  -10.6029    0.5908  -24.3896 C   0  0  0  0  0  0  0  0  0  0  0  0
  -11.2274    1.5514  -24.8175 O   0  0  0  0  0  0  0  0  0  0  0  0
  1  2  1  0
  2  3  1  0
  3  4  2  0
  3  5  1  0
  5  6  1  0
  6  7  1  0
  8  7  1  6
  8  9  1  0
  9 10  2  0
  9 11  1  0
 11 12  1  0
 12 13  2  0
 13 14  1  0
 14 15  2  0
 15 16  1  0
 16 17  2  0
 17 18  1  0
 18 19  2  0
 19 20  1  0
 20 21  2  0
 11 22  1  0
 22 23  1  0
 23 24  1  6
  8 25  1  0
 25 26  2  0
 26 27  1  0
 27 28  1  0
 27 29  2  0
 29 30  1  0
 30 31  2  0
 31 32  1  0
 32 33  2  0
 32  6  1  0
 23  8  1  0
 31 25  1  0
 21 12  1  0
 21 16  1  0
M  END
>  <cnnaffinities>  (161) 
[6.47352]

>  <score>  (161) 
6.47352

>  <index>  (161) 
78

>  <Smiles>  (161) 
C(N(C(=O)C(N1C([C@@]2(C(=O)N(c3c(nc(c4c(c(c(c(c34)[H])[H])[H])[H])[H])[H])C([C@@]2(C([H])([H])[H])[H])([H])[H])c2c(c(Cl)c(c(c2C1=O)[H])[H])[H])([H])[H])([H])[H])[H])([H])([H])[H]

>  <h>  (161) 
<NA>

>  <Training>  (161) 
True

>  <Success>  (161) 
True

>  <enamine_searched>  (161) 
False

>  <enamine_id>  (161) 
nan

$$$$

     RDKit          3D

 27 31  0  0  0  0  0  0  0  0999 V2000
   -9.8854   -1.0269  -23.8715 C   0  0  0  0  0  0  0  0  0  0  0  0
   -8.7965   -1.4166  -22.9980 N   0  0  0  0  0  0  0  0  0  0  0  0
   -8.5268   -0.7833  -21.8074 C   0  0  0  0  0  0  0  0  0  0  0  0
   -9.1383    0.1260  -21.2970 O   0  0  0  0  0  0  0  0  0  0  0  0
   -7.3780   -1.4004  -21.2719 N   0  0  0  0  0  0  0  0  0  0  0  0
   -6.5927   -0.8291  -20.2149 C   0  0  0  0  0  0  0  0  0  0  0  0
   -6.9102   -1.0593  -18.9029 C   0  0  0  0  0  0  0  0  0  0  0  0
   -6.2214   -0.5557  -17.8406 N   0  0  0  0  0  0  0  0  0  0  0  0
   -5.1811    0.2014  -18.0914 C   0  0  0  0  0  0  0  0  0  0  0  0
   -4.7313    0.5255  -19.4009 C   0  0  0  0  0  0  0  0  0  0  0  0
   -3.6033    1.3599  -19.6321 C   0  0  0  0  0  0  0  0  0  0  0  0
   -3.2135    1.6562  -20.9079 C   0  0  0  0  0  0  0  0  0  0  0  0
   -3.9334    1.1364  -22.0066 C   0  0  0  0  0  0  0  0  0  0  0  0
   -5.0250    0.3332  -21.8069 C   0  0  0  0  0  0  0  0  0  0  0  0
   -5.4538   -0.0006  -20.4965 C   0  0  0  0  0  0  0  0  0  0  0  0
   -6.9150   -2.4146  -22.1134 C   0  0  0  0  0  0  0  0  0  0  0  0
   -5.9434   -3.0970  -21.9095 O   0  0  0  0  0  0  0  0  0  0  0  0
   -7.8491   -2.4520  -23.3193 C   0  0  0  0  0  0  0  0  0  0  0  0
   -7.1397   -2.4160  -24.6994 C   0  0  0  0  0  0  0  0  0  0  0  0
   -7.6550   -3.7904  -25.0179 N   0  0  0  0  0  0  0  0  0  0  0  0
   -8.5806   -3.8746  -26.4302 S   0  0  0  0  0  0  0  0  0  0  0  0
   -9.7041   -2.9562  -26.2760 O   0  0  0  0  0  0  0  0  0  0  0  0
   -7.6605   -3.7362  -27.5427 O   0  0  0  0  0  0  0  0  0  0  0  0
   -9.2948   -5.5004  -26.4913 C   0  0  0  0  0  0  0  0  0  0  0  0
  -10.4776   -5.6475  -27.4229 C   0  0  0  0  0  0  0  0  0  0  0  0
  -10.6858   -5.6894  -25.9393 C   0  0  0  0  0  0  0  0  0  0  0  0
   -8.3822   -3.8520  -23.7256 C   0  0  0  0  0  0  0  0  0  0  0  0
  1  2  1  0
  2  3  1  0
  3  4  2  0
  3  5  1  0
  5  6  1  0
  6  7  2  0
  7  8  1  0
  8  9  2  0
  9 10  1  0
 10 11  2  0
 11 12  1  0
 12 13  2  0
 13 14  1  0
 14 15  2  0
  5 16  1  0
 16 17  2  0
 16 18  1  0
 18 19  1  0
 19 20  1  0
 20 21  1  0
 21 22  2  0
 21 23  2  0
 21 24  1  0
 24 25  1  0
 25 26  1  0
 20 27  1  0
 18  2  1  0
 26 24  1  0
 15  6  1  0
 27 18  1  0
 15 10  1  0
M  END
>  <cnnaffinities>  (162) 
[5.59902, 5.28647, 5.36501, 5.40144, 5.36312, 5.55977, 5.44957, 5.49162, 5.4435, 5.48414, 5.51028, 5.5094, 5.5078]

>  <score>  (162) 
5.59902

>  <index>  (162) 
79

>  <Smiles>  (162) 
C(N1C(=O)N(c2c(nc(c3c(c(c(c(c23)[H])[H])[H])[H])[H])[H])C(=O)C21C(N(S(=O)(=O)C1(C(C1([H])[H])([H])[H])[H])C2([H])[H])([H])[H])([H])([H])[H]

>  <h>  (162) 
<NA>

>  <Training>  (162) 
True

>  <Success>  (162) 
True

>  <enamine_searched>  (162) 
False

>  <enamine_id>  (162) 
nan

$$$$

     RDKit          3D

 34 39  0  0  0  0  0  0  0  0999 V2000
   10.0447    0.7081   22.4408 C   0  0  0  0  0  0  0  0  0  0  0  0
    8.6163    0.1872   22.4206 C   0  0  1  0  0  0  0  0  0  0  0  0
    7.7948    0.7200   21.2369 C   0  0  0  0  0  0  0  0  0  0  0  0
    6.7908   -0.3126   21.0414 N   0  0  0  0  0  0  0  0  0  0  0  0
    5.8572   -0.2005   19.9870 C   0  0  0  0  0  0  0  0  0  0  0  0
    6.0716   -0.8187   18.7830 C   0  0  0  0  0  0  0  0  0  0  0  0
    5.2841   -0.6446   17.6927 N   0  0  0  0  0  0  0  0  0  0  0  0
    4.2281    0.1220   17.8278 C   0  0  0  0  0  0  0  0  0  0  0  0
    3.8613    0.7714   19.0430 C   0  0  0  0  0  0  0  0  0  0  0  0
    2.6953    1.5673   19.1649 C   0  0  0  0  0  0  0  0  0  0  0  0
    2.3731    2.1466   20.3604 C   0  0  0  0  0  0  0  0  0  0  0  0
    3.2238    2.0066   21.4782 C   0  0  0  0  0  0  0  0  0  0  0  0
    4.3778    1.2704   21.3804 C   0  0  0  0  0  0  0  0  0  0  0  0
    4.7081    0.6241   20.1604 C   0  0  0  0  0  0  0  0  0  0  0  0
    7.1797   -1.5446   21.5302 C   0  0  0  0  0  0  0  0  0  0  0  0
    6.5970   -2.5878   21.3090 O   0  0  0  0  0  0  0  0  0  0  0  0
    8.4653   -1.3785   22.3554 C   0  0  1  0  0  0  0  0  0  0  0  0
    9.5791   -2.1258   21.5759 C   0  0  0  0  0  0  0  0  0  0  0  0
   10.7772   -2.3513   22.3688 N   0  0  0  0  0  0  0  0  0  0  0  0
   12.0967   -2.3214   21.7735 C   0  0  0  0  0  0  0  0  0  0  0  0
   12.8103   -1.0416   22.0268 C   0  0  0  0  0  0  0  0  0  0  0  0
   13.2260   -0.1287   21.2192 N   0  0  0  0  0  0  0  0  0  0  0  0
   13.8867    0.7726   22.0433 C   0  0  0  0  0  0  0  0  0  0  0  0
   13.8124    0.3413   23.3172 C   0  0  0  0  0  0  0  0  0  0  0  0
   13.1045   -0.8189   23.3288 O   0  0  0  0  0  0  0  0  0  0  0  0
   10.7228   -2.8116   23.6560 C   0  0  0  0  0  0  0  0  0  0  0  0
   11.6915   -3.3015   24.2180 O   0  0  0  0  0  0  0  0  0  0  0  0
    9.4197   -2.6502   24.3417 C   0  0  0  0  0  0  0  0  0  0  0  0
    9.3398   -3.1311   25.6433 C   0  0  0  0  0  0  0  0  0  0  0  0
    8.1734   -3.0136   26.3667 C   0  0  0  0  0  0  0  0  0  0  0  0
    7.0930   -2.4020   25.7438 C   0  0  0  0  0  0  0  0  0  0  0  0
    5.9513   -2.2789   26.4367 F   0  0  0  0  0  0  0  0  0  0  0  0
    7.1524   -1.9015   24.4556 C   0  0  0  0  0  0  0  0  0  0  0  0
    8.3418   -2.0096   23.7292 C   0  0  0  0  0  0  0  0  0  0  0  0
  2  1  1  6
  2  3  1  0
  3  4  1  0
  4  5  1  0
  5  6  2  0
  6  7  1  0
  7  8  2  0
  8  9  1  0
  9 10  2  0
 10 11  1  0
 11 12  2  0
 12 13  1  0
 13 14  2  0
  4 15  1  0
 15 16  2  0
 15 17  1  0
 17 18  1  6
 18 19  1  0
 19 20  1  0
 20 21  1  0
 21 22  2  0
 22 23  1  0
 23 24  2  0
 24 25  1  0
 19 26  1  0
 26 27  2  0
 26 28  1  0
 28 29  2  0
 29 30  1  0
 30 31  2  0
 31 32  1  0
 31 33  1  0
 33 34  2  0
 17  2  1  0
 25 21  1  0
 34 28  1  0
 14  5  1  0
 34 17  1  0
 14  9  1  0
M  END
>  <cnnaffinities>  (163) 
[6.52081, 6.59342]

>  <score>  (163) 
6.52081

>  <index>  (163) 
82

>  <Smiles>  (163) 
C([C@]1(C(N(c2c(nc(c3c(c(c(c(c23)[H])[H])[H])[H])[H])[H])C(=O)[C@]21C(N(C(c1nc(c(o1)[H])[H])([H])[H])C(=O)c1c(c(c(F)c(c21)[H])[H])[H])([H])[H])([H])[H])[H])([H])([H])[H]

>  <h>  (163) 
<NA>

>  <Training>  (163) 
True

>  <Success>  (163) 
True

>  <enamine_searched>  (163) 
False

>  <enamine_id>  (163) 
nan

$$$$

     RDKit          3D

 38 43  0  0  0  0  0  0  0  0999 V2000
    4.4909    4.5840   23.8324 C   0  0  0  0  0  0  0  0  0  0  0  0
    5.5824    5.6198   24.0613 C   0  0  2  0  0  0  0  0  0  0  0  0
    4.9552    7.0104   24.1500 C   0  0  0  0  0  0  0  0  0  0  0  0
    5.9073    8.0490   24.1842 O   0  0  0  0  0  0  0  0  0  0  0  0
    6.6527    8.0558   22.9863 C   0  0  0  0  0  0  0  0  0  0  0  0
    7.5113    6.8043   22.8555 C   0  0  1  0  0  0  0  0  0  0  0  0
    8.6046    6.7866   23.9174 C   0  0  0  0  0  0  0  0  0  0  0  0
    6.5883    5.5938   22.9186 N   0  0  0  0  0  0  0  0  0  0  0  0
    7.3112    4.2977   22.6850 C   0  0  0  0  0  0  0  0  0  0  0  0
    7.8127    3.5880   23.9479 C   0  0  0  0  0  0  0  0  0  0  0  0
    8.6459    2.4483   23.6231 N   0  0  0  0  0  0  0  0  0  0  0  0
    8.1141    1.1059   23.7398 C   0  0  0  0  0  0  0  0  0  0  0  0
    8.5197    0.2026   22.5560 C   0  0  2  0  0  0  0  0  0  0  0  0
    7.7681    0.6230   21.2787 C   0  0  0  0  0  0  0  0  0  0  0  0
    7.9378    1.6253   20.6203 O   0  0  0  0  0  0  0  0  0  0  0  0
    6.8387   -0.3446   20.9875 N   0  0  0  0  0  0  0  0  0  0  0  0
    5.8866   -0.1646   19.9595 C   0  0  0  0  0  0  0  0  0  0  0  0
    6.0779   -0.7919   18.7581 C   0  0  0  0  0  0  0  0  0  0  0  0
    5.2621   -0.6498   17.6864 N   0  0  0  0  0  0  0  0  0  0  0  0
    4.1994    0.1046   17.8384 C   0  0  0  0  0  0  0  0  0  0  0  0
    3.8567    0.7678   19.0526 C   0  0  0  0  0  0  0  0  0  0  0  0
    2.6704    1.5378   19.1783 C   0  0  0  0  0  0  0  0  0  0  0  0
    2.3397    2.1218   20.3698 C   0  0  0  0  0  0  0  0  0  0  0  0
    3.2016    2.0051   21.4839 C   0  0  0  0  0  0  0  0  0  0  0  0
    4.3699    1.2889   21.3851 C   0  0  0  0  0  0  0  0  0  0  0  0
    4.7217    0.6381   20.1630 C   0  0  0  0  0  0  0  0  0  0  0  0
    6.7773   -1.4342   21.9280 C   0  0  0  0  0  0  0  0  0  0  0  0
    8.0599   -1.2751   22.7556 C   0  0  2  0  0  0  0  0  0  0  0  0
    7.8851   -1.7691   24.1900 C   0  0  0  0  0  0  0  0  0  0  0  0
   10.0124    0.3505   22.3542 C   0  0  0  0  0  0  0  0  0  0  0  0
   10.7206   -0.6222   21.6425 C   0  0  0  0  0  0  0  0  0  0  0  0
   12.0888   -0.5064   21.5012 C   0  0  0  0  0  0  0  0  0  0  0  0
   12.9336   -1.7829   20.6597 Cl  0  0  0  0  0  0  0  0  0  0  0  0
   12.7778    0.6379   21.9097 C   0  0  0  0  0  0  0  0  0  0  0  0
   12.0619    1.6462   22.5296 C   0  0  0  0  0  0  0  0  0  0  0  0
   10.6993    1.4944   22.7784 C   0  0  0  0  0  0  0  0  0  0  0  0
    9.9628    2.6661   23.3546 C   0  0  0  0  0  0  0  0  0  0  0  0
   10.5069    3.7557   23.5097 O   0  0  0  0  0  0  0  0  0  0  0  0
  2  1  1  6
  2  3  1  0
  3  4  1  0
  4  5  1  0
  5  6  1  0
  6  7  1  1
  6  8  1  0
  8  9  1  0
  9 10  1  0
 10 11  1  0
 11 12  1  0
 13 12  1  1
 13 14  1  0
 14 15  2  0
 14 16  1  0
 16 17  1  0
 17 18  2  0
 18 19  1  0
 19 20  2  0
 20 21  1  0
 21 22  2  0
 22 23  1  0
 23 24  2  0
 24 25  1  0
 25 26  2  0
 16 27  1  0
 27 28  1  0
 28 29  1  1
 13 30  1  0
 30 31  2  0
 31 32  1  0
 32 33  1  0
 32 34  2  0
 34 35  1  0
 35 36  2  0
 36 37  1  0
 37 38  2  0
  8  2  1  0
 37 11  1  0
 28 13  1  0
 36 30  1  0
 26 17  1  0
 26 21  1  0
M  CHG  1   8   1
M  END
>  <cnnaffinities>  (164) 
[6.6558, 6.38195, 6.40349, 6.57662, 6.27095]

>  <score>  (164) 
6.6558

>  <index>  (164) 
83

>  <Smiles>  (164) 
C([C@@]1(C(OC([C@@](C([H])([H])[H])([N+]1(C(C(N1C([C@@]2(C(=O)N(c3c(nc(c4c(c(c(c(c34)[H])[H])[H])[H])[H])[H])C([C@@]2(C([H])([H])[H])[H])([H])[H])c2c(c(Cl)c(c(c2C1=O)[H])[H])[H])([H])[H])([H])[H])([H])[H])[H])[H])([H])[H])([H])[H])[H])([H])([H])[H]

>  <h>  (164) 
<NA>

>  <Training>  (164) 
True

>  <Success>  (164) 
True

>  <enamine_searched>  (164) 
False

>  <enamine_id>  (164) 
nan

$$$$

     RDKit          3D

 35 40  0  0  0  0  0  0  0  0999 V2000
    6.9235    5.7453   26.8989 C   0  0  0  0  0  0  0  0  0  0  0  0
    7.0500    5.3290   25.5197 N   0  0  0  0  0  0  0  0  0  0  0  0
    7.5127    4.0835   25.2142 C   0  0  0  0  0  0  0  0  0  0  0  0
    7.6958    3.2309   26.0687 O   0  0  0  0  0  0  0  0  0  0  0  0
    7.7700    3.8119   23.7486 C   0  0  0  0  0  0  0  0  0  0  0  0
    8.6043    2.6895   23.4440 N   0  0  0  0  0  0  0  0  0  0  0  0
    8.0618    1.3662   23.6599 C   0  0  0  0  0  0  0  0  0  0  0  0
    8.4947    0.3737   22.5534 C   0  0  2  0  0  0  0  0  0  0  0  0
    7.7717    0.6873   21.2270 C   0  0  0  0  0  0  0  0  0  0  0  0
    7.9421    1.6439   20.5043 O   0  0  0  0  0  0  0  0  0  0  0  0
    6.8596   -0.3118   20.9723 N   0  0  0  0  0  0  0  0  0  0  0  0
    5.8892   -0.1683   19.9514 C   0  0  0  0  0  0  0  0  0  0  0  0
    6.0776   -0.7978   18.7508 C   0  0  0  0  0  0  0  0  0  0  0  0
    5.2548   -0.6603   17.6830 N   0  0  0  0  0  0  0  0  0  0  0  0
    4.1944    0.0966   17.8345 C   0  0  0  0  0  0  0  0  0  0  0  0
    3.8554    0.7662   19.0466 C   0  0  0  0  0  0  0  0  0  0  0  0
    2.6760    1.5469   19.1750 C   0  0  0  0  0  0  0  0  0  0  0  0
    2.3613    2.1498   20.3604 C   0  0  0  0  0  0  0  0  0  0  0  0
    3.2231    2.0235   21.4740 C   0  0  0  0  0  0  0  0  0  0  0  0
    4.3713    1.2757   21.3769 C   0  0  0  0  0  0  0  0  0  0  0  0
    4.7204    0.6285   20.1542 C   0  0  0  0  0  0  0  0  0  0  0  0
    6.7712   -1.3178   22.0015 C   0  0  0  0  0  0  0  0  0  0  0  0
    8.0377   -1.0913   22.8393 C   0  0  2  0  0  0  0  0  0  0  0  0
    7.8432   -1.4984   24.2968 C   0  0  0  0  0  0  0  0  0  0  0  0
    9.9937    0.5099   22.3584 C   0  0  0  0  0  0  0  0  0  0  0  0
   10.7025   -0.4933   21.6822 C   0  0  0  0  0  0  0  0  0  0  0  0
   12.0729   -0.3993   21.5370 C   0  0  0  0  0  0  0  0  0  0  0  0
   12.9114   -1.6850   20.7043 Cl  0  0  0  0  0  0  0  0  0  0  0  0
   12.7694    0.7431   21.9358 C   0  0  0  0  0  0  0  0  0  0  0  0
   12.0631    1.7747   22.5269 C   0  0  0  0  0  0  0  0  0  0  0  0
   10.6864    1.6664   22.7419 C   0  0  0  0  0  0  0  0  0  0  0  0
    9.9598    2.8648   23.2731 C   0  0  0  0  0  0  0  0  0  0  0  0
   10.5132    3.9363   23.4775 O   0  0  0  0  0  0  0  0  0  0  0  0
    6.5547    3.9989   22.8489 C   0  0  0  0  0  0  0  0  0  0  0  0
    7.7339    4.8957   22.7086 C   0  0  0  0  0  0  0  0  0  0  0  0
  1  2  1  0
  2  3  1  0
  3  4  2  0
  3  5  1  0
  5  6  1  0
  6  7  1  0
  8  7  1  1
  8  9  1  0
  9 10  2  0
  9 11  1  0
 11 12  1  0
 12 13  2  0
 13 14  1  0
 14 15  2  0
 15 16  1  0
 16 17  2  0
 17 18  1  0
 18 19  2  0
 19 20  1  0
 20 21  2  0
 11 22  1  0
 22 23  1  0
 23 24  1  1
  8 25  1  0
 25 26  2  0
 26 27  1  0
 27 28  1  0
 27 29  2  0
 29 30  1  0
 30 31  2  0
 31 32  1  0
 32 33  2  0
  5 34  1  0
 34 35  1  0
 35  5  1  0
 32  6  1  0
 23  8  1  0
 31 25  1  0
 21 12  1  0
 21 16  1  0
M  END
>  <cnnaffinities>  (165) 
[6.15437, 6.31384, 6.14014]

>  <score>  (165) 
6.15437

>  <index>  (165) 
84

>  <Smiles>  (165) 
C(N(C(=O)C1(N2C([C@@]3(C(=O)N(c4c(nc(c5c(c(c(c(c45)[H])[H])[H])[H])[H])[H])C([C@@]3(C([H])([H])[H])[H])([H])[H])c3c(c(Cl)c(c(c3C2=O)[H])[H])[H])([H])[H])C(C1([H])[H])([H])[H])[H])([H])([H])[H]

>  <h>  (165) 
<NA>

>  <Training>  (165) 
True

>  <Success>  (165) 
True

>  <enamine_searched>  (165) 
False

>  <enamine_id>  (165) 
nan

$$$$

     RDKit          3D

 35 40  0  0  0  0  0  0  0  0999 V2000
   -8.4810    2.2125  -28.9414 C   0  0  0  0  0  0  0  0  0  0  0  0
   -8.7161    2.2414  -27.5040 N   0  0  0  0  0  0  0  0  0  0  0  0
   -7.8979    1.5468  -26.6703 C   0  0  0  0  0  0  0  0  0  0  0  0
   -6.9160    0.9413  -27.0788 O   0  0  0  0  0  0  0  0  0  0  0  0
   -8.2532    1.6026  -25.1819 C   0  0  0  0  0  0  0  0  0  0  0  0
   -9.0141    0.5039  -24.6483 N   0  0  0  0  0  0  0  0  0  0  0  0
   -8.3632   -0.7670  -24.3804 C   0  0  0  0  0  0  0  0  0  0  0  0
   -8.8800   -1.4226  -23.0705 C   0  0  2  0  0  0  0  0  0  0  0  0
   -8.3647   -0.6341  -21.8406 C   0  0  0  0  0  0  0  0  0  0  0  0
   -8.7109    0.4715  -21.4781 O   0  0  0  0  0  0  0  0  0  0  0  0
   -7.4123   -1.3878  -21.1912 N   0  0  0  0  0  0  0  0  0  0  0  0
   -6.6049   -0.8165  -20.1691 C   0  0  0  0  0  0  0  0  0  0  0  0
   -6.9083   -1.0517  -18.8538 C   0  0  0  0  0  0  0  0  0  0  0  0
   -6.2099   -0.5539  -17.8023 N   0  0  0  0  0  0  0  0  0  0  0  0
   -5.1738    0.2048  -18.0762 C   0  0  0  0  0  0  0  0  0  0  0  0
   -4.7400    0.5269  -19.3961 C   0  0  0  0  0  0  0  0  0  0  0  0
   -3.6103    1.3570  -19.6371 C   0  0  0  0  0  0  0  0  0  0  0  0
   -3.2145    1.6400  -20.9159 C   0  0  0  0  0  0  0  0  0  0  0  0
   -3.9238    1.0981  -22.0115 C   0  0  0  0  0  0  0  0  0  0  0  0
   -5.0136    0.2867  -21.8035 C   0  0  0  0  0  0  0  0  0  0  0  0
   -5.4664   -0.0061  -20.4842 C   0  0  0  0  0  0  0  0  0  0  0  0
   -7.0997   -2.6417  -21.8467 C   0  0  0  0  0  0  0  0  0  0  0  0
   -8.2624   -2.8468  -22.8410 C   0  0  2  0  0  0  0  0  0  0  0  0
   -7.8246   -3.6295  -24.0849 C   0  0  0  0  0  0  0  0  0  0  0  0
  -10.4027   -1.3748  -23.0789 C   0  0  0  0  0  0  0  0  0  0  0  0
  -11.1265   -2.1663  -22.1722 C   0  0  0  0  0  0  0  0  0  0  0  0
  -12.5078   -2.1229  -22.1601 C   0  0  0  0  0  0  0  0  0  0  0  0
  -13.3924   -3.1131  -21.0318 Cl  0  0  0  0  0  0  0  0  0  0  0  0
  -13.2077   -1.2846  -23.0272 C   0  0  0  0  0  0  0  0  0  0  0  0
  -12.5023   -0.4461  -23.8703 C   0  0  0  0  0  0  0  0  0  0  0  0
  -11.1052   -0.4512  -23.8724 C   0  0  0  0  0  0  0  0  0  0  0  0
  -10.3806    0.6055  -24.6512 C   0  0  0  0  0  0  0  0  0  0  0  0
  -10.9449    1.5378  -25.2145 O   0  0  0  0  0  0  0  0  0  0  0  0
   -8.4218    2.9493  -24.5399 C   0  0  0  0  0  0  0  0  0  0  0  0
   -7.1707    2.1590  -24.2925 C   0  0  0  0  0  0  0  0  0  0  0  0
  1  2  1  0
  2  3  1  0
  3  4  2  0
  3  5  1  0
  5  6  1  0
  6  7  1  0
  8  7  1  6
  8  9  1  0
  9 10  2  0
  9 11  1  0
 11 12  1  0
 12 13  2  0
 13 14  1  0
 14 15  2  0
 15 16  1  0
 16 17  2  0
 17 18  1  0
 18 19  2  0
 19 20  1  0
 20 21  2  0
 11 22  1  0
 22 23  1  0
 23 24  1  6
  8 25  1  0
 25 26  2  0
 26 27  1  0
 27 28  1  0
 27 29  2  0
 29 30  1  0
 30 31  2  0
 31 32  1  0
 32 33  2  0
  5 34  1  0
 34 35  1  0
 35  5  1  0
 32  6  1  0
 23  8  1  0
 31 25  1  0
 21 12  1  0
 21 16  1  0
M  END
>  <cnnaffinities>  (166) 
[6.38126, 6.55044, 6.35128, 6.25375, 6.4217, 6.34458]

>  <score>  (166) 
6.38126

>  <index>  (166) 
80

>  <Smiles>  (166) 
C(N(C(=O)C1(N2C([C@@]3(C(=O)N(c4c(nc(c5c(c(c(c(c45)[H])[H])[H])[H])[H])[H])C([C@@]3(C([H])([H])[H])[H])([H])[H])c3c(c(Cl)c(c(c3C2=O)[H])[H])[H])([H])[H])C(C1([H])[H])([H])[H])[H])([H])([H])[H]

>  <h>  (166) 
<NA>

>  <Training>  (166) 
True

>  <Success>  (166) 
True

>  <enamine_searched>  (166) 
False

>  <enamine_id>  (166) 
nan

$$$$

     RDKit          3D

 34 39  0  0  0  0  0  0  0  0999 V2000
   10.0636    0.6758   22.4468 C   0  0  0  0  0  0  0  0  0  0  0  0
    8.6289    0.1689   22.4279 C   0  0  1  0  0  0  0  0  0  0  0  0
    7.8130    0.7078   21.2423 C   0  0  0  0  0  0  0  0  0  0  0  0
    6.7970   -0.3169   21.0524 N   0  0  0  0  0  0  0  0  0  0  0  0
    5.8600   -0.2064   19.9977 C   0  0  0  0  0  0  0  0  0  0  0  0
    6.0783   -0.8159   18.7898 C   0  0  0  0  0  0  0  0  0  0  0  0
    5.2962   -0.6358   17.6972 N   0  0  0  0  0  0  0  0  0  0  0  0
    4.2429    0.1356   17.8269 C   0  0  0  0  0  0  0  0  0  0  0  0
    3.8739    0.7903   19.0374 C   0  0  0  0  0  0  0  0  0  0  0  0
    2.7019    1.5824   19.1550 C   0  0  0  0  0  0  0  0  0  0  0  0
    2.3794    2.1627   20.3513 C   0  0  0  0  0  0  0  0  0  0  0  0
    3.2247    2.0107   21.4727 C   0  0  0  0  0  0  0  0  0  0  0  0
    4.3769    1.2704   21.3778 C   0  0  0  0  0  0  0  0  0  0  0  0
    4.7151    0.6308   20.1584 C   0  0  0  0  0  0  0  0  0  0  0  0
    7.1795   -1.5533   21.5382 C   0  0  0  0  0  0  0  0  0  0  0  0
    6.5869   -2.5893   21.3102 O   0  0  0  0  0  0  0  0  0  0  0  0
    8.4559   -1.3978   22.3767 C   0  0  1  0  0  0  0  0  0  0  0  0
    9.5875   -2.1520   21.6127 C   0  0  0  0  0  0  0  0  0  0  0  0
   10.7847   -2.3701   22.4157 N   0  0  0  0  0  0  0  0  0  0  0  0
   12.1371   -2.3051   21.8612 C   0  0  0  0  0  0  0  0  0  0  0  0
   12.9093   -1.0979   22.2598 C   0  0  0  0  0  0  0  0  0  0  0  0
   13.5355   -0.9133   23.4415 C   0  0  0  0  0  0  0  0  0  0  0  0
   14.1877    0.2774   23.3842 O   0  0  0  0  0  0  0  0  0  0  0  0
   13.9451    0.7371   22.1458 C   0  0  0  0  0  0  0  0  0  0  0  0
   13.1877   -0.0265   21.4272 N   0  0  0  0  0  0  0  0  0  0  0  0
   10.7079   -2.7935   23.7127 C   0  0  0  0  0  0  0  0  0  0  0  0
   11.6915   -3.2190   24.3155 O   0  0  0  0  0  0  0  0  0  0  0  0
    9.3772   -2.6563   24.3759 C   0  0  0  0  0  0  0  0  0  0  0  0
    9.2720   -3.1191   25.6863 C   0  0  0  0  0  0  0  0  0  0  0  0
    8.1015   -2.9915   26.4085 C   0  0  0  0  0  0  0  0  0  0  0  0
    7.0200   -2.3807   25.7857 C   0  0  0  0  0  0  0  0  0  0  0  0
    5.8715   -2.2501   26.4745 F   0  0  0  0  0  0  0  0  0  0  0  0
    7.0959   -1.8985   24.4876 C   0  0  0  0  0  0  0  0  0  0  0  0
    8.2948   -2.0183   23.7591 C   0  0  0  0  0  0  0  0  0  0  0  0
  2  1  1  6
  2  3  1  0
  3  4  1  0
  4  5  1  0
  5  6  2  0
  6  7  1  0
  7  8  2  0
  8  9  1  0
  9 10  2  0
 10 11  1  0
 11 12  2  0
 12 13  1  0
 13 14  2  0
  4 15  1  0
 15 16  2  0
 15 17  1  0
 17 18  1  6
 18 19  1  0
 19 20  1  0
 20 21  1  0
 21 22  2  0
 22 23  1  0
 23 24  1  0
 24 25  2  0
 19 26  1  0
 26 27  2  0
 26 28  1  0
 28 29  2  0
 29 30  1  0
 30 31  2  0
 31 32  1  0
 31 33  1  0
 33 34  2  0
 17  2  1  0
 25 21  1  0
 34 28  1  0
 14  5  1  0
 34 17  1  0
 14  9  1  0
M  END
>  <cnnaffinities>  (167) 
[6.55399]

>  <score>  (167) 
6.55399

>  <index>  (167) 
85

>  <Smiles>  (167) 
C([C@]1(C(N(c2c(nc(c3c(c(c(c(c23)[H])[H])[H])[H])[H])[H])C(=O)[C@]21C(N(C(c1c(oc(n1)[H])[H])([H])[H])C(=O)c1c(c(c(F)c(c21)[H])[H])[H])([H])[H])([H])[H])[H])([H])([H])[H]

>  <h>  (167) 
<NA>

>  <Training>  (167) 
True

>  <Success>  (167) 
True

>  <enamine_searched>  (167) 
False

>  <enamine_id>  (167) 
nan

$$$$

     RDKit          3D

 40 45  0  0  0  0  0  0  0  0999 V2000
    7.1970    6.3583   21.6522 C   0  0  0  0  0  0  0  0  0  0  0  0
    7.4596    5.5307   22.8109 N   0  0  0  0  0  0  0  0  0  0  0  0
    6.7919    4.3511   22.9423 C   0  0  0  0  0  0  0  0  0  0  0  0
    5.9284    3.9704   22.1699 O   0  0  0  0  0  0  0  0  0  0  0  0
    7.2211    3.5198   24.1545 C   0  0  0  0  0  0  0  0  0  0  0  0
    8.1794    2.4970   23.7537 N   0  0  0  0  0  0  0  0  0  0  0  0
    7.8346    1.0841   23.8090 C   0  0  0  0  0  0  0  0  0  0  0  0
    8.4320    0.2843   22.6123 C   0  0  2  0  0  0  0  0  0  0  0  0
    7.7274    0.6595   21.2896 C   0  0  0  0  0  0  0  0  0  0  0  0
    7.8988    1.6369   20.5951 O   0  0  0  0  0  0  0  0  0  0  0  0
    6.8187   -0.3315   20.9965 N   0  0  0  0  0  0  0  0  0  0  0  0
    5.8817   -0.1696   19.9571 C   0  0  0  0  0  0  0  0  0  0  0  0
    6.0826   -0.7871   18.7517 C   0  0  0  0  0  0  0  0  0  0  0  0
    5.2737   -0.6458   17.6752 N   0  0  0  0  0  0  0  0  0  0  0  0
    4.2114    0.1114   17.8203 C   0  0  0  0  0  0  0  0  0  0  0  0
    3.8626    0.7730   19.0329 C   0  0  0  0  0  0  0  0  0  0  0  0
    2.6897    1.5644   19.1529 C   0  0  0  0  0  0  0  0  0  0  0  0
    2.3631    2.1491   20.3436 C   0  0  0  0  0  0  0  0  0  0  0  0
    3.2170    2.0143   21.4602 C   0  0  0  0  0  0  0  0  0  0  0  0
    4.3777    1.2884   21.3608 C   0  0  0  0  0  0  0  0  0  0  0  0
    4.7187    0.6354   20.1450 C   0  0  0  0  0  0  0  0  0  0  0  0
    6.8250   -1.4569   21.8951 C   0  0  0  0  0  0  0  0  0  0  0  0
    8.1147   -1.2368   22.6892 C   0  0  2  0  0  0  0  0  0  0  0  0
    8.0625   -1.8891   24.0737 C   0  0  0  0  0  0  0  0  0  0  0  0
    7.9577   -3.3350   23.9733 N   0  0  0  0  0  0  0  0  0  0  0  0
    6.8078   -4.0306   24.0434 C   0  0  0  0  0  0  0  0  0  0  0  0
    5.6660   -3.3727   24.3350 N   0  0  0  0  0  0  0  0  0  0  0  0
    4.5897   -4.1487   24.3858 C   0  0  0  0  0  0  0  0  0  0  0  0
    4.5467   -5.4599   24.1636 N   0  0  0  0  0  0  0  0  0  0  0  0
    5.7381   -5.9966   23.8830 C   0  0  0  0  0  0  0  0  0  0  0  0
    6.8958   -5.3634   23.8117 N   0  0  0  0  0  0  0  0  0  0  0  0
    9.9034    0.6252   22.5068 C   0  0  0  0  0  0  0  0  0  0  0  0
   10.8055   -0.2423   21.8759 C   0  0  0  0  0  0  0  0  0  0  0  0
   12.1554    0.0570   21.8659 C   0  0  0  0  0  0  0  0  0  0  0  0
   13.2800   -1.1166   21.2322 Cl  0  0  0  0  0  0  0  0  0  0  0  0
   12.6420    1.2669   22.3591 C   0  0  0  0  0  0  0  0  0  0  0  0
   11.7374    2.1822   22.8649 C   0  0  0  0  0  0  0  0  0  0  0  0
   10.3799    1.8668   22.9467 C   0  0  0  0  0  0  0  0  0  0  0  0
    9.4423    2.9107   23.4631 C   0  0  0  0  0  0  0  0  0  0  0  0
    9.7882    4.0843   23.5917 O   0  0  0  0  0  0  0  0  0  0  0  0
  1  2  1  0
  2  3  1  0
  3  4  2  0
  3  5  1  0
  5  6  1  0
  6  7  1  0
  8  7  1  1
  8  9  1  0
  9 10  2  0
  9 11  1  0
 11 12  1  0
 12 13  2  0
 13 14  1  0
 14 15  2  0
 15 16  1  0
 16 17  2  0
 17 18  1  0
 18 19  2  0
 19 20  1  0
 20 21  2  0
 11 22  1  0
 22 23  1  0
 23 24  1  1
 24 25  1  0
 25 26  1  0
 26 27  2  0
 27 28  1  0
 28 29  2  0
 29 30  1  0
 30 31  2  0
  8 32  1  0
 32 33  2  0
 33 34  1  0
 34 35  1  0
 34 36  2  0
 36 37  1  0
 37 38  2  0
 38 39  1  0
 39 40  2  0
 39  6  1  0
 23  8  1  0
 31 26  1  0
 38 32  1  0
 21 12  1  0
 21 16  1  0
M  END
>  <cnnaffinities>  (168) 
[6.77476, 6.56728, 6.56947]

>  <score>  (168) 
6.77476

>  <index>  (168) 
86

>  <Smiles>  (168) 
C(N(C(=O)C(N1C([C@@]2(C(=O)N(c3c(nc(c4c(c(c(c(c34)[H])[H])[H])[H])[H])[H])C([C@@]2(C(N(c2nc(nc(n2)[H])[H])[H])([H])[H])[H])([H])[H])c2c(c(Cl)c(c(c2C1=O)[H])[H])[H])([H])[H])([H])[H])[H])([H])([H])[H]

>  <h>  (168) 
<NA>

>  <Training>  (168) 
True

>  <Success>  (168) 
True

>  <enamine_searched>  (168) 
False

>  <enamine_id>  (168) 
nan

$$$$

     RDKit          3D

 38 43  0  0  0  0  0  0  0  0999 V2000
    7.0539    6.1697   21.1434 C   0  0  0  0  0  0  0  0  0  0  0  0
    7.6080    5.3661   22.2155 N   0  0  0  0  0  0  0  0  0  0  0  0
    6.9441    4.2856   22.6967 C   0  0  0  0  0  0  0  0  0  0  0  0
    5.9359    3.8346   22.1733 O   0  0  0  0  0  0  0  0  0  0  0  0
    7.5400    3.6546   23.9618 C   0  0  0  0  0  0  0  0  0  0  0  0
    8.4233    2.5513   23.6050 N   0  0  0  0  0  0  0  0  0  0  0  0
    7.9681    1.1735   23.7105 C   0  0  0  0  0  0  0  0  0  0  0  0
    8.4967    0.2680   22.5552 C   0  0  2  0  0  0  0  0  0  0  0  0
    7.7853    0.6099   21.2272 C   0  0  0  0  0  0  0  0  0  0  0  0
    8.0117    1.5311   20.4746 O   0  0  0  0  0  0  0  0  0  0  0  0
    6.8097   -0.3357   21.0083 N   0  0  0  0  0  0  0  0  0  0  0  0
    5.8801   -0.1701   19.9614 C   0  0  0  0  0  0  0  0  0  0  0  0
    6.1043   -0.7664   18.7508 C   0  0  0  0  0  0  0  0  0  0  0  0
    5.2955   -0.6306   17.6740 N   0  0  0  0  0  0  0  0  0  0  0  0
    4.2226    0.1125   17.8137 C   0  0  0  0  0  0  0  0  0  0  0  0
    3.8644    0.7722   19.0249 C   0  0  0  0  0  0  0  0  0  0  0  0
    2.6923    1.5669   19.1420 C   0  0  0  0  0  0  0  0  0  0  0  0
    2.3616    2.1485   20.3344 C   0  0  0  0  0  0  0  0  0  0  0  0
    3.2084    2.0052   21.4574 C   0  0  0  0  0  0  0  0  0  0  0  0
    4.3666    1.2736   21.3610 C   0  0  0  0  0  0  0  0  0  0  0  0
    4.7122    0.6283   20.1430 C   0  0  0  0  0  0  0  0  0  0  0  0
    6.7806   -1.4196   21.9577 C   0  0  0  0  0  0  0  0  0  0  0  0
    8.0820   -1.2192   22.7363 C   0  0  2  0  0  0  0  0  0  0  0  0
    8.0096   -1.7531   24.1641 C   0  0  0  0  0  0  0  0  0  0  0  0
    7.7653   -3.1811   24.1781 N   0  0  0  0  0  0  0  0  0  0  0  0
    6.5681   -3.8111   24.2247 C   0  0  0  0  0  0  0  0  0  0  0  0
    6.8228   -5.1618   24.1321 C   0  0  0  0  0  0  0  0  0  0  0  0
    8.2251   -5.2344   24.0059 C   0  0  0  0  0  0  0  0  0  0  0  0
    8.7841   -4.0303   24.0111 N   0  0  0  0  0  0  0  0  0  0  0  0
    9.9895    0.4950   22.4188 C   0  0  0  0  0  0  0  0  0  0  0  0
   10.8250   -0.4756   21.8444 C   0  0  0  0  0  0  0  0  0  0  0  0
   12.1930   -0.2792   21.8079 C   0  0  0  0  0  0  0  0  0  0  0  0
   13.2167   -1.5523   21.1991 Cl  0  0  0  0  0  0  0  0  0  0  0  0
   12.7656    0.9193   22.2255 C   0  0  0  0  0  0  0  0  0  0  0  0
   11.9367    1.9228   22.6921 C   0  0  0  0  0  0  0  0  0  0  0  0
   10.5576    1.7250   22.7859 C   0  0  0  0  0  0  0  0  0  0  0  0
    9.7004    2.8681   23.2520 C   0  0  0  0  0  0  0  0  0  0  0  0
   10.1112    4.0276   23.2967 O   0  0  0  0  0  0  0  0  0  0  0  0
  1  2  1  0
  2  3  1  0
  3  4  2  0
  3  5  1  0
  5  6  1  0
  6  7  1  0
  8  7  1  1
  8  9  1  0
  9 10  2  0
  9 11  1  0
 11 12  1  0
 12 13  2  0
 13 14  1  0
 14 15  2  0
 15 16  1  0
 16 17  2  0
 17 18  1  0
 18 19  2  0
 19 20  1  0
 20 21  2  0
 11 22  1  0
 22 23  1  0
 23 24  1  1
 24 25  1  0
 25 26  1  0
 26 27  2  0
 27 28  1  0
 28 29  2  0
  8 30  1  0
 30 31  2  0
 31 32  1  0
 32 33  1  0
 32 34  2  0
 34 35  1  0
 35 36  2  0
 36 37  1  0
 37 38  2  0
 37  6  1  0
 23  8  1  0
 29 25  1  0
 36 30  1  0
 21 12  1  0
 21 16  1  0
M  END
>  <cnnaffinities>  (169) 
[6.73725, 6.16971, 6.51384, 6.34536]

>  <score>  (169) 
6.73725

>  <index>  (169) 
87

>  <Smiles>  (169) 
C(N(C(=O)C(N1C([C@@]2(C(=O)N(c3c(nc(c4c(c(c(c(c34)[H])[H])[H])[H])[H])[H])C([C@@]2(C(n2c(c(c(n2)[H])[H])[H])([H])[H])[H])([H])[H])c2c(c(Cl)c(c(c2C1=O)[H])[H])[H])([H])[H])([H])[H])[H])([H])([H])[H]

>  <h>  (169) 
<NA>

>  <Training>  (169) 
True

>  <Success>  (169) 
True

>  <enamine_searched>  (169) 
False

>  <enamine_id>  (169) 
nan

$$$$

     RDKit          3D

 36 40  0  0  0  0  0  0  0  0999 V2000
    3.5164    3.6007   28.3708 C   0  0  0  0  0  0  0  0  0  0  0  0
    3.5304    2.7563   27.0908 C   0  0  0  0  0  0  0  0  0  0  0  0
    4.9321    2.3999   26.5866 C   0  0  0  0  0  0  0  0  0  0  0  0
    5.5375    3.2339   25.9271 O   0  0  0  0  0  0  0  0  0  0  0  0
    5.3882    1.0894   26.6921 N   0  0  0  0  0  0  0  0  0  0  0  0
    4.8834    0.2404   27.7738 C   0  0  0  0  0  0  0  0  0  0  0  0
    6.0620   -0.5245   28.3689 C   0  0  0  0  0  0  0  0  0  0  0  0
    6.6314   -1.4570   27.2982 C   0  0  0  0  0  0  0  0  0  0  0  0
    6.9148   -0.7004   26.0238 C   0  0  0  0  0  0  0  0  0  0  0  0
    7.7694   -1.2747   25.0746 C   0  0  0  0  0  0  0  0  0  0  0  0
    7.9911   -0.6384   23.8532 C   0  0  0  0  0  0  0  0  0  0  0  0
    7.3944    0.5922   23.5801 C   0  0  0  0  0  0  0  0  0  0  0  0
    7.7267    1.2441   22.3936 N   0  0  0  0  0  0  0  0  0  0  0  0
    8.1683    2.6431   22.4596 C   0  0  0  0  0  0  0  0  0  0  0  0
    9.6397    2.8353   22.7647 C   0  0  0  0  0  0  0  0  0  0  0  0
   10.4086    1.8642   23.4212 C   0  0  0  0  0  0  0  0  0  0  0  0
   11.6648    2.1663   23.9523 C   0  0  0  0  0  0  0  0  0  0  0  0
   12.1688    3.4611   23.8059 C   0  0  0  0  0  0  0  0  0  0  0  0
   11.5017    4.3942   23.0137 C   0  0  0  0  0  0  0  0  0  0  0  0
   12.2881    6.0996   22.6455 Br  0  0  0  0  0  0  0  0  0  0  0  0
   10.2254    4.0863   22.5289 C   0  0  0  0  0  0  0  0  0  0  0  0
    7.6911    0.5632   21.1808 C   0  0  0  0  0  0  0  0  0  0  0  0
    8.2419    1.0567   20.2016 O   0  0  0  0  0  0  0  0  0  0  0  0
    6.7706   -0.6589   20.9744 C   0  0  0  0  0  0  0  0  0  0  0  0
    5.7709   -0.4021   19.8477 C   0  0  0  0  0  0  0  0  0  0  0  0
    5.9855   -0.9348   18.5631 C   0  0  0  0  0  0  0  0  0  0  0  0
    5.2082   -0.6538   17.5037 N   0  0  0  0  0  0  0  0  0  0  0  0
    4.1537    0.1591   17.6987 C   0  0  0  0  0  0  0  0  0  0  0  0
    3.8387    0.7254   18.9401 C   0  0  0  0  0  0  0  0  0  0  0  0
    2.7328    1.5788   19.0970 C   0  0  0  0  0  0  0  0  0  0  0  0
    2.4682    2.1655   20.3378 C   0  0  0  0  0  0  0  0  0  0  0  0
    3.3091    1.9133   21.4251 C   0  0  0  0  0  0  0  0  0  0  0  0
    4.4052    1.0560   21.2744 C   0  0  0  0  0  0  0  0  0  0  0  0
    4.6722    0.4500   20.0378 C   0  0  0  0  0  0  0  0  0  0  0  0
    6.5450    1.1725   24.5301 C   0  0  0  0  0  0  0  0  0  0  0  0
    6.2896    0.5385   25.7578 C   0  0  0  0  0  0  0  0  0  0  0  0
  1  2  1  0
  2  3  1  0
  3  4  2  0
  3  5  1  0
  5  6  1  0
  6  7  1  0
  7  8  1  0
  8  9  1  0
  9 10  2  0
 10 11  1  0
 11 12  2  0
 12 13  1  0
 13 14  1  0
 14 15  1  0
 15 16  2  0
 16 17  1  0
 17 18  2  0
 18 19  1  0
 19 20  1  0
 19 21  2  0
 13 22  1  0
 22 23  2  0
 22 24  1  0
 24 25  1  0
 25 26  2  0
 26 27  1  0
 27 28  2  0
 28 29  1  0
 29 30  2  0
 30 31  1  0
 31 32  2  0
 32 33  1  0
 33 34  2  0
 12 35  1  0
 35 36  2  0
 36  5  1  0
 36  9  1  0
 21 15  1  0
 34 25  1  0
 34 29  1  0
M  END
>  <cnnaffinities>  (170) 
[6.32121, 6.82452, 6.79881, 6.4433, 6.86402]

>  <score>  (170) 
6.32121

>  <index>  (170) 
88

>  <Smiles>  (170) 
C(C(C(=O)N1C(C(C(c2c(c(c(N(C(c3c(c(c(c(Br)c3[H])[H])[H])[H])([H])[H])C(=O)C(c3c(nc(c4c(c(c(c(c34)[H])[H])[H])[H])[H])[H])([H])[H])c(c12)[H])[H])[H])([H])[H])([H])[H])([H])[H])([H])[H])([H])([H])[H]

>  <h>  (170) 
<NA>

>  <Training>  (170) 
True

>  <Success>  (170) 
True

>  <enamine_searched>  (170) 
False

>  <enamine_id>  (170) 
nan

$$$$

     RDKit          3D

 20 22  0  0  0  0  0  0  0  0999 V2000
   -8.5058    0.7097  -21.4615 O   0  0  0  0  0  0  0  0  0  0  0  0
   -8.3849   -0.4023  -21.9337 C   0  0  0  0  0  0  0  0  0  0  0  0
   -7.4379   -1.4331  -21.2755 C   0  0  0  0  0  0  0  0  0  0  0  0
   -6.5821   -0.8280  -20.1830 C   0  0  0  0  0  0  0  0  0  0  0  0
   -6.8795   -1.0398  -18.8614 C   0  0  0  0  0  0  0  0  0  0  0  0
   -6.1986   -0.5365  -17.7944 N   0  0  0  0  0  0  0  0  0  0  0  0
   -5.1593    0.2195  -18.0624 C   0  0  0  0  0  0  0  0  0  0  0  0
   -4.7263    0.5339  -19.3793 C   0  0  0  0  0  0  0  0  0  0  0  0
   -3.6002    1.3652  -19.6199 C   0  0  0  0  0  0  0  0  0  0  0  0
   -3.2108    1.6585  -20.9001 C   0  0  0  0  0  0  0  0  0  0  0  0
   -3.9339    1.1304  -21.9932 C   0  0  0  0  0  0  0  0  0  0  0  0
   -5.0276    0.3235  -21.7866 C   0  0  0  0  0  0  0  0  0  0  0  0
   -5.4555    0.0017  -20.4717 C   0  0  0  0  0  0  0  0  0  0  0  0
   -9.0626   -0.7715  -23.0887 N   0  0  0  0  0  0  0  0  0  0  0  0
  -10.0066    0.1962  -23.6426 C   0  0  0  0  0  0  0  0  0  0  0  0
  -11.3807    0.2158  -23.0213 C   0  0  0  0  0  0  0  0  0  0  0  0
  -12.0208   -0.7906  -22.4170 C   0  0  0  0  0  0  0  0  0  0  0  0
  -11.5706   -2.1750  -22.1571 C   0  0  0  0  0  0  0  0  0  0  0  0
  -10.4472   -2.7809  -22.5516 C   0  0  0  0  0  0  0  0  0  0  0  0
   -9.3679   -2.1606  -23.4044 C   0  0  0  0  0  0  0  0  0  0  0  0
  1  2  2  0
  2  3  1  0
  3  4  1  0
  4  5  2  0
  5  6  1  0
  6  7  2  0
  7  8  1  0
  8  9  2  0
  9 10  1  0
 10 11  2  0
 11 12  1  0
 12 13  2  0
  2 14  1  0
 14 15  1  0
 15 16  1  0
 16 17  2  0
 17 18  1  0
 18 19  2  0
 19 20  1  0
 13  4  1  0
 20 14  1  0
 13  8  1  0
M  END
>  <cnnaffinities>  (171) 
[4.86206, 4.8417, 5.09564, 5.0956, 4.6476, 4.6475, 4.86209, 4.86105]

>  <score>  (171) 
4.86206

>  <index>  (171) 
81

>  <Smiles>  (171) 
O=C(C(c1c(nc(c2c(c(c(c(c12)[H])[H])[H])[H])[H])[H])([H])[H])N1C(C(=C(C(=C(C1([H])[H])[H])[H])[H])[H])([H])[H]

>  <h>  (171) 
<NA>

>  <Training>  (171) 
True

>  <Success>  (171) 
True

>  <enamine_searched>  (171) 
False

>  <enamine_id>  (171) 
nan

$$$$

     RDKit          3D

 28 31  0  0  0  0  0  0  0  0999 V2000
  -10.5973    0.5405  -25.0882 C   0  0  0  0  0  0  0  0  0  0  0  0
   -9.7931   -0.5973  -24.8998 O   0  0  0  0  0  0  0  0  0  0  0  0
   -8.4689   -0.4947  -25.2037 C   0  0  0  0  0  0  0  0  0  0  0  0
   -7.9292    0.5369  -25.9782 C   0  0  0  0  0  0  0  0  0  0  0  0
   -6.5625    0.5519  -26.2423 C   0  0  0  0  0  0  0  0  0  0  0  0
   -5.7536   -0.4512  -25.7256 C   0  0  0  0  0  0  0  0  0  0  0  0
   -6.3138   -1.4615  -24.9455 C   0  0  0  0  0  0  0  0  0  0  0  0
   -7.6711   -1.5279  -24.6786 C   0  0  0  0  0  0  0  0  0  0  0  0
   -8.3142   -2.6444  -23.8392 C   0  0  1  0  0  0  0  0  0  0  0  0
   -9.1524   -3.6338  -24.6813 C   0  0  0  0  0  0  0  0  0  0  0  0
   -8.4144   -4.8456  -25.2663 C   0  0  1  0  0  0  0  0  0  0  0  0
   -7.5133   -4.5252  -26.4636 C   0  0  0  0  0  0  0  0  0  0  0  0
   -7.6801   -5.5388  -24.1177 C   0  0  0  0  0  0  0  0  0  0  0  0
   -6.7245   -4.5939  -23.4050 C   0  0  0  0  0  0  0  0  0  0  0  0
   -7.3697   -3.3533  -22.9658 N   0  0  0  0  0  0  0  0  0  0  0  0
   -6.7563   -2.7496  -21.8851 C   0  0  0  0  0  0  0  0  0  0  0  0
   -5.7562   -3.2277  -21.3785 O   0  0  0  0  0  0  0  0  0  0  0  0
   -7.3994   -1.4807  -21.2948 C   0  0  0  0  0  0  0  0  0  0  0  0
   -6.5764   -0.8505  -20.1965 C   0  0  0  0  0  0  0  0  0  0  0  0
   -6.8808   -1.0647  -18.8794 C   0  0  0  0  0  0  0  0  0  0  0  0
   -6.2100   -0.5531  -17.8079 N   0  0  0  0  0  0  0  0  0  0  0  0
   -5.1738    0.2072  -18.0723 C   0  0  0  0  0  0  0  0  0  0  0  0
   -4.7280    0.5148  -19.3853 C   0  0  0  0  0  0  0  0  0  0  0  0
   -3.6038    1.3459  -19.6218 C   0  0  0  0  0  0  0  0  0  0  0  0
   -3.2021    1.6247  -20.8982 C   0  0  0  0  0  0  0  0  0  0  0  0
   -3.9097    1.0843  -21.9976 C   0  0  0  0  0  0  0  0  0  0  0  0
   -5.0029    0.2781  -21.7967 C   0  0  0  0  0  0  0  0  0  0  0  0
   -5.4443   -0.0292  -20.4836 C   0  0  0  0  0  0  0  0  0  0  0  0
  1  2  1  0
  2  3  1  0
  3  4  2  0
  4  5  1  0
  5  6  2  0
  6  7  1  0
  7  8  2  0
  9  8  1  6
  9 10  1  0
 10 11  1  0
 11 12  1  6
 11 13  1  0
 13 14  1  0
 14 15  1  0
 15 16  1  0
 16 17  2  0
 16 18  1  0
 18 19  1  0
 19 20  2  0
 20 21  1  0
 21 22  2  0
 22 23  1  0
 23 24  2  0
 24 25  1  0
 25 26  2  0
 26 27  1  0
 27 28  2  0
  8  3  1  0
 15  9  1  0
 28 19  1  0
 28 23  1  0
M  END
>  <cnnaffinities>  (172) 
[5.60769, 5.42353, 5.62438, 5.60364, 5.73065]

>  <score>  (172) 
5.60769

>  <index>  (172) 
82

>  <Smiles>  (172) 
C(Oc1c(c(c(c(c1[C@]1(C([C@@](C([H])([H])[H])(C(C(N1C(=O)C(c1c(nc(c2c(c(c(c(c12)[H])[H])[H])[H])[H])[H])([H])[H])([H])[H])([H])[H])[H])([H])[H])[H])[H])[H])[H])[H])([H])([H])[H]

>  <h>  (172) 
<NA>

>  <Training>  (172) 
True

>  <Success>  (172) 
True

>  <enamine_searched>  (172) 
False

>  <enamine_id>  (172) 
nan

$$$$

     RDKit          3D

 30 34  0  0  0  0  0  0  0  0999 V2000
   -3.6260   -1.0749  -25.3568 N   0  0  0  0  0  0  0  0  0  0  0  0
   -4.5218   -2.0122  -26.3777 S   0  0  0  0  0  0  0  0  0  0  0  0
   -4.3055   -3.3706  -25.9215 O   0  0  0  0  0  0  0  0  0  0  0  0
   -4.1897   -1.5676  -27.7174 O   0  0  0  0  0  0  0  0  0  0  0  0
   -6.2247   -1.5897  -26.0858 C   0  0  0  0  0  0  0  0  0  0  0  0
   -6.9802   -0.9924  -27.0942 C   0  0  0  0  0  0  0  0  0  0  0  0
   -8.2844   -0.6211  -26.8254 C   0  0  0  0  0  0  0  0  0  0  0  0
   -8.8195   -0.8196  -25.5476 C   0  0  0  0  0  0  0  0  0  0  0  0
   -8.0821   -1.4607  -24.5549 C   0  0  0  0  0  0  0  0  0  0  0  0
   -6.7674   -1.8238  -24.8303 C   0  0  0  0  0  0  0  0  0  0  0  0
   -8.6804   -1.6890  -23.1807 C   0  0  1  0  0  0  0  0  0  0  0  0
  -10.2136   -1.5969  -23.2303 C   0  0  0  0  0  0  0  0  0  0  0  0
  -10.6473   -0.3861  -24.0396 C   0  0  0  0  0  0  0  0  0  0  0  0
  -10.0734   -0.3637  -25.3357 O   0  0  0  0  0  0  0  0  0  0  0  0
   -8.2605   -2.9271  -22.5735 N   0  0  0  0  0  0  0  0  0  0  0  0
   -7.4708   -2.7904  -21.4749 C   0  0  0  0  0  0  0  0  0  0  0  0
   -6.8996   -3.6586  -20.8616 O   0  0  0  0  0  0  0  0  0  0  0  0
   -7.4055   -1.4025  -21.2128 N   0  0  0  0  0  0  0  0  0  0  0  0
   -6.5917   -0.8330  -20.1938 C   0  0  0  0  0  0  0  0  0  0  0  0
   -6.9038   -1.0704  -18.8799 C   0  0  0  0  0  0  0  0  0  0  0  0
   -6.2227   -0.5506  -17.8296 N   0  0  0  0  0  0  0  0  0  0  0  0
   -5.1857    0.2058  -18.0976 C   0  0  0  0  0  0  0  0  0  0  0  0
   -4.7353    0.5148  -19.4103 C   0  0  0  0  0  0  0  0  0  0  0  0
   -3.6009    1.3410  -19.6382 C   0  0  0  0  0  0  0  0  0  0  0  0
   -3.1840    1.6043  -20.9128 C   0  0  0  0  0  0  0  0  0  0  0  0
   -3.8785    1.0466  -22.0113 C   0  0  0  0  0  0  0  0  0  0  0  0
   -4.9771    0.2488  -21.8195 C   0  0  0  0  0  0  0  0  0  0  0  0
   -5.4477   -0.0259  -20.5026 C   0  0  0  0  0  0  0  0  0  0  0  0
   -8.0981   -0.6743  -22.1807 C   0  0  0  0  0  0  0  0  0  0  0  0
   -8.2088    0.5269  -22.2172 O   0  0  0  0  0  0  0  0  0  0  0  0
  1  2  1  0
  2  3  2  0
  2  4  2  0
  2  5  1  0
  5  6  2  0
  6  7  1  0
  7  8  2  0
  8  9  1  0
  9 10  2  0
  9 11  1  0
 11 12  1  6
 12 13  1  0
 13 14  1  0
 11 15  1  0
 15 16  1  0
 16 17  2  0
 16 18  1  0
 18 19  1  0
 19 20  2  0
 20 21  1  0
 21 22  2  0
 22 23  1  0
 23 24  2  0
 24 25  1  0
 25 26  2  0
 26 27  1  0
 27 28  2  0
 18 29  1  0
 29 30  2  0
 10  5  1  0
 29 11  1  0
 14  8  1  0
 28 19  1  0
 28 23  1  0
M  END
>  <cnnaffinities>  (173) 
[5.35591, 5.34483]

>  <score>  (173) 
5.35591

>  <index>  (173) 
83

>  <Smiles>  (173) 
N(S(=O)(=O)c1c(c(c2c(c1[H])[C@@]1(C(C(O2)([H])[H])([H])[H])N(C(=O)N(c2c(nc(c3c(c(c(c(c23)[H])[H])[H])[H])[H])[H])C1=O)[H])[H])[H])([H])[H]

>  <h>  (173) 
<NA>

>  <Training>  (173) 
True

>  <Success>  (173) 
True

>  <enamine_searched>  (173) 
False

>  <enamine_id>  (173) 
nan

$$$$

     RDKit          3D

 37 42  0  0  0  0  0  0  0  0999 V2000
   -8.2550   -3.8359  -23.8548 C   0  0  0  0  0  0  0  0  0  0  0  0
   -8.4878   -3.0107  -22.5899 C   0  0  1  0  0  0  0  0  0  0  0  0
   -7.1716   -2.4154  -22.0509 C   0  0  0  0  0  0  0  0  0  0  0  0
   -7.6035   -1.2847  -21.2602 N   0  0  0  0  0  0  0  0  0  0  0  0
   -6.8076   -0.7384  -20.2107 C   0  0  0  0  0  0  0  0  0  0  0  0
   -7.1150   -0.9955  -18.8955 C   0  0  0  0  0  0  0  0  0  0  0  0
   -6.3923   -0.5549  -17.8331 N   0  0  0  0  0  0  0  0  0  0  0  0
   -5.3307    0.1767  -18.0820 C   0  0  0  0  0  0  0  0  0  0  0  0
   -4.8807    0.5083  -19.3926 C   0  0  0  0  0  0  0  0  0  0  0  0
   -3.7431    1.3351  -19.6223 C   0  0  0  0  0  0  0  0  0  0  0  0
   -3.3401    1.6270  -20.8979 C   0  0  0  0  0  0  0  0  0  0  0  0
   -4.0466    1.1058  -22.0005 C   0  0  0  0  0  0  0  0  0  0  0  0
   -5.1431    0.2933  -21.8047 C   0  0  0  0  0  0  0  0  0  0  0  0
   -5.6137    0.0027  -20.4957 C   0  0  0  0  0  0  0  0  0  0  0  0
   -8.8807   -0.8721  -21.5705 C   0  0  0  0  0  0  0  0  0  0  0  0
   -9.4554    0.0574  -21.0385 O   0  0  0  0  0  0  0  0  0  0  0  0
   -9.4601   -1.7935  -22.6925 C   0  0  1  0  0  0  0  0  0  0  0  0
   -9.3354   -1.1324  -24.0904 C   0  0  0  0  0  0  0  0  0  0  0  0
  -10.2646   -0.0359  -24.3060 N   0  0  0  0  0  0  0  0  0  0  0  0
   -9.7986    1.0771  -25.1229 C   0  0  0  0  0  0  0  0  0  0  0  0
   -8.5935    1.7302  -24.4259 C   0  0  0  0  0  0  0  0  0  0  0  0
   -7.4732    1.7945  -24.9047 O   0  0  0  0  0  0  0  0  0  0  0  0
   -8.9271    2.1568  -23.1804 N   0  0  0  0  0  0  0  0  0  0  0  0
   -7.9808    2.5186  -22.1523 C   0  0  0  0  0  0  0  0  0  0  0  0
   -7.5065    3.9481  -22.2370 C   0  0  0  0  0  0  0  0  0  0  0  0
   -8.5525    4.8376  -22.2203 F   0  0  0  0  0  0  0  0  0  0  0  0
   -6.3025    4.3409  -23.0279 C   0  0  0  0  0  0  0  0  0  0  0  0
   -6.2794    4.3520  -21.5017 C   0  0  0  0  0  0  0  0  0  0  0  0
  -11.5122    0.0128  -23.7583 C   0  0  0  0  0  0  0  0  0  0  0  0
  -12.2658    0.9664  -23.9277 O   0  0  0  0  0  0  0  0  0  0  0  0
  -11.9100   -1.1556  -22.9247 C   0  0  0  0  0  0  0  0  0  0  0  0
  -13.2589   -1.2667  -22.5843 C   0  0  0  0  0  0  0  0  0  0  0  0
  -13.6863   -2.2640  -21.7363 C   0  0  0  0  0  0  0  0  0  0  0  0
  -12.7263   -3.1349  -21.2401 C   0  0  0  0  0  0  0  0  0  0  0  0
  -13.1109   -4.0243  -20.3107 F   0  0  0  0  0  0  0  0  0  0  0  0
  -11.3945   -3.0819  -21.6130 C   0  0  0  0  0  0  0  0  0  0  0  0
  -10.9436   -2.0572  -22.4483 C   0  0  0  0  0  0  0  0  0  0  0  0
  2  1  1  6
  2  3  1  0
  3  4  1  0
  4  5  1  0
  5  6  2  0
  6  7  1  0
  7  8  2  0
  8  9  1  0
  9 10  2  0
 10 11  1  0
 11 12  2  0
 12 13  1  0
 13 14  2  0
  4 15  1  0
 15 16  2  0
 15 17  1  0
 17 18  1  6
 18 19  1  0
 19 20  1  0
 20 21  1  0
 21 22  2  0
 21 23  1  0
 23 24  1  0
 24 25  1  0
 25 26  1  0
 25 27  1  0
 27 28  1  0
 19 29  1  0
 29 30  2  0
 29 31  1  0
 31 32  2  0
 32 33  1  0
 33 34  2  0
 34 35  1  0
 34 36  1  0
 36 37  2  0
 17  2  1  0
 28 25  1  0
 37 31  1  0
 14  5  1  0
 37 17  1  0
 14  9  1  0
M  END
>  <cnnaffinities>  (174) 
[6.78248]

>  <score>  (174) 
6.78248

>  <index>  (174) 
84

>  <Smiles>  (174) 
C([C@]1(C(N(c2c(nc(c3c(c(c(c(c23)[H])[H])[H])[H])[H])[H])C(=O)[C@]21C(N(C(C(=O)N(C(C1(F)C(C1([H])[H])([H])[H])([H])[H])[H])([H])[H])C(=O)c1c(c(c(F)c(c21)[H])[H])[H])([H])[H])([H])[H])[H])([H])([H])[H]

>  <h>  (174) 
<NA>

>  <Training>  (174) 
True

>  <Success>  (174) 
True

>  <enamine_searched>  (174) 
False

>  <enamine_id>  (174) 
nan

$$$$

     RDKit          3D

 34 39  0  0  0  0  0  0  0  0999 V2000
   -8.9102    1.0576  -29.3914 C   0  0  0  0  0  0  0  0  0  0  0  0
   -8.9217    1.3861  -27.9787 N   0  0  0  0  0  0  0  0  0  0  0  0
   -8.1427    0.6490  -27.1403 C   0  0  0  0  0  0  0  0  0  0  0  0
   -7.4160   -0.2570  -27.5188 O   0  0  0  0  0  0  0  0  0  0  0  0
   -8.2250    1.0563  -25.6696 C   0  0  0  0  0  0  0  0  0  0  0  0
   -9.0896    0.1831  -24.9064 N   0  0  0  0  0  0  0  0  0  0  0  0
   -8.6159   -1.1353  -24.5349 C   0  0  0  0  0  0  0  0  0  0  0  0
   -8.9442   -1.4839  -23.0632 C   0  0  2  0  0  0  0  0  0  0  0  0
   -8.1504   -0.5670  -22.1057 C   0  0  0  0  0  0  0  0  0  0  0  0
   -8.1736    0.6442  -22.0816 O   0  0  0  0  0  0  0  0  0  0  0  0
   -7.3933   -1.3400  -21.2460 N   0  0  0  0  0  0  0  0  0  0  0  0
   -6.5988   -0.8064  -20.2051 C   0  0  0  0  0  0  0  0  0  0  0  0
   -6.9047   -1.0682  -18.8915 C   0  0  0  0  0  0  0  0  0  0  0  0
   -6.2316   -0.5675  -17.8255 N   0  0  0  0  0  0  0  0  0  0  0  0
   -5.1962    0.1996  -18.0816 C   0  0  0  0  0  0  0  0  0  0  0  0
   -4.7423    0.5142  -19.3950 C   0  0  0  0  0  0  0  0  0  0  0  0
   -3.6100    1.3436  -19.6154 C   0  0  0  0  0  0  0  0  0  0  0  0
   -3.1863    1.6154  -20.8882 C   0  0  0  0  0  0  0  0  0  0  0  0
   -3.8629    1.0643  -21.9979 C   0  0  0  0  0  0  0  0  0  0  0  0
   -4.9576    0.2588  -21.8113 C   0  0  0  0  0  0  0  0  0  0  0  0
   -5.4427   -0.0137  -20.4990 C   0  0  0  0  0  0  0  0  0  0  0  0
   -7.6246   -2.7522  -21.3849 C   0  0  0  0  0  0  0  0  0  0  0  0
   -8.4425   -2.8757  -22.6584 C   0  0  0  0  0  0  0  0  0  0  0  0
   -8.0560   -3.9477  -23.6460 C   0  0  0  0  0  0  0  0  0  0  0  0
   -9.2958   -4.0915  -22.8175 C   0  0  0  0  0  0  0  0  0  0  0  0
  -10.4448   -1.2440  -22.9058 C   0  0  0  0  0  0  0  0  0  0  0  0
  -11.2028   -1.9861  -22.0014 C   0  0  0  0  0  0  0  0  0  0  0  0
  -12.5752   -1.8125  -21.9629 C   0  0  0  0  0  0  0  0  0  0  0  0
  -13.5078   -2.9594  -21.0460 Cl  0  0  0  0  0  0  0  0  0  0  0  0
  -13.2091   -0.7539  -22.6073 C   0  0  0  0  0  0  0  0  0  0  0  0
  -12.4439    0.0432  -23.4362 C   0  0  0  0  0  0  0  0  0  0  0  0
  -11.0989   -0.2456  -23.6429 C   0  0  0  0  0  0  0  0  0  0  0  0
  -10.3588    0.5946  -24.6320 C   0  0  0  0  0  0  0  0  0  0  0  0
  -10.8410    1.5961  -25.1488 O   0  0  0  0  0  0  0  0  0  0  0  0
  1  2  1  0
  2  3  1  0
  3  4  2  0
  3  5  1  0
  5  6  1  0
  6  7  1  0
  8  7  1  6
  8  9  1  0
  9 10  2  0
  9 11  1  0
 11 12  1  0
 12 13  2  0
 13 14  1  0
 14 15  2  0
 15 16  1  0
 16 17  2  0
 17 18  1  0
 18 19  2  0
 19 20  1  0
 20 21  2  0
 11 22  1  0
 22 23  1  0
 23 24  1  0
 24 25  1  0
  8 26  1  0
 26 27  2  0
 27 28  1  0
 28 29  1  0
 28 30  2  0
 30 31  1  0
 31 32  2  0
 32 33  1  0
 33 34  2  0
 33  6  1  0
 23  8  1  0
 32 26  1  0
 21 12  1  0
 25 23  1  0
 21 16  1  0
M  END
>  <cnnaffinities>  (175) 
[5.95253, 6.27122]

>  <score>  (175) 
5.95253

>  <index>  (175) 
85

>  <Smiles>  (175) 
C(N(C(=O)C(N1C([C@@]2(C(=O)N(c3c(nc(c4c(c(c(c(c34)[H])[H])[H])[H])[H])[H])C(C32C(C3([H])[H])([H])[H])([H])[H])c2c(c(Cl)c(c(c2C1=O)[H])[H])[H])([H])[H])([H])[H])[H])([H])([H])[H]

>  <h>  (175) 
<NA>

>  <Training>  (175) 
True

>  <Success>  (175) 
True

>  <enamine_searched>  (175) 
False

>  <enamine_id>  (175) 
nan

$$$$

     RDKit          3D

 21 23  0  0  0  0  0  0  0  0999 V2000
   -8.5395   -5.5584  -25.7863 C   0  0  0  0  0  0  0  0  0  0  0  0
   -9.0489   -5.4363  -24.3504 C   0  0  1  0  0  0  0  0  0  0  0  0
   -8.0229   -5.8737  -23.3102 C   0  0  0  0  0  0  0  0  0  0  0  0
   -6.9354   -4.8305  -23.0929 C   0  0  0  0  0  0  0  0  0  0  0  0
   -7.5152   -3.5409  -22.7107 N   0  0  0  0  0  0  0  0  0  0  0  0
   -6.7569   -2.7457  -21.8632 C   0  0  0  0  0  0  0  0  0  0  0  0
   -5.6250   -3.0585  -21.5417 O   0  0  0  0  0  0  0  0  0  0  0  0
   -7.4128   -1.4736  -21.2703 C   0  0  0  0  0  0  0  0  0  0  0  0
   -6.5796   -0.8308  -20.1833 C   0  0  0  0  0  0  0  0  0  0  0  0
   -6.8739   -1.0470  -18.8634 C   0  0  0  0  0  0  0  0  0  0  0  0
   -6.1949   -0.5432  -17.7958 N   0  0  0  0  0  0  0  0  0  0  0  0
   -5.1606    0.2192  -18.0641 C   0  0  0  0  0  0  0  0  0  0  0  0
   -4.7231    0.5287  -19.3791 C   0  0  0  0  0  0  0  0  0  0  0  0
   -3.5950    1.3562  -19.6205 C   0  0  0  0  0  0  0  0  0  0  0  0
   -3.1918    1.6328  -20.8994 C   0  0  0  0  0  0  0  0  0  0  0  0
   -3.9018    1.0893  -21.9926 C   0  0  0  0  0  0  0  0  0  0  0  0
   -4.9981    0.2877  -21.7854 C   0  0  0  0  0  0  0  0  0  0  0  0
   -5.4451   -0.0134  -20.4733 C   0  0  0  0  0  0  0  0  0  0  0  0
   -8.5388   -2.9939  -23.6119 C   0  0  1  0  0  0  0  0  0  0  0  0
   -7.9408   -2.2903  -24.8400 C   0  0  0  0  0  0  0  0  0  0  0  0
   -9.5870   -4.0595  -23.9664 C   0  0  0  0  0  0  0  0  0  0  0  0
  2  1  1  6
  2  3  1  0
  3  4  1  0
  4  5  1  0
  5  6  1  0
  6  7  2  0
  6  8  1  0
  8  9  1  0
  9 10  2  0
 10 11  1  0
 11 12  2  0
 12 13  1  0
 13 14  2  0
 14 15  1  0
 15 16  2  0
 16 17  1  0
 17 18  2  0
  5 19  1  0
 19 20  1  6
 19 21  1  0
 21  2  1  0
 18  9  1  0
 18 13  1  0
M  END
>  <cnnaffinities>  (176) 
[5.06384, 4.93713, 4.95705, 4.89264]

>  <score>  (176) 
5.06384

>  <index>  (176) 
86

>  <Smiles>  (176) 
C([C@]1(C(C(N(C(=O)C(c2c(nc(c3c(c(c(c(c23)[H])[H])[H])[H])[H])[H])([H])[H])[C@@](C([H])([H])[H])(C1([H])[H])[H])([H])[H])([H])[H])[H])([H])([H])[H]

>  <h>  (176) 
<NA>

>  <Training>  (176) 
True

>  <Success>  (176) 
True

>  <enamine_searched>  (176) 
False

>  <enamine_id>  (176) 
nan

$$$$

     RDKit          3D

 35 40  0  0  0  0  0  0  0  0999 V2000
   -8.2509   -3.9938  -23.7248 C   0  0  0  0  0  0  0  0  0  0  0  0
   -8.4515   -3.1554  -22.4664 C   0  0  1  0  0  0  0  0  0  0  0  0
   -7.1145   -2.5357  -22.0073 C   0  0  0  0  0  0  0  0  0  0  0  0
   -7.5242   -1.3860  -21.2268 N   0  0  0  0  0  0  0  0  0  0  0  0
   -6.7310   -0.8091  -20.1986 C   0  0  0  0  0  0  0  0  0  0  0  0
   -7.0345   -1.0526  -18.8787 C   0  0  0  0  0  0  0  0  0  0  0  0
   -6.3136   -0.5941  -17.8230 N   0  0  0  0  0  0  0  0  0  0  0  0
   -5.2616    0.1446  -18.0820 C   0  0  0  0  0  0  0  0  0  0  0  0
   -4.8202    0.4701  -19.3941 C   0  0  0  0  0  0  0  0  0  0  0  0
   -3.6828    1.2927  -19.6142 C   0  0  0  0  0  0  0  0  0  0  0  0
   -3.2719    1.5867  -20.8842 C   0  0  0  0  0  0  0  0  0  0  0  0
   -3.9709    1.0475  -21.9890 C   0  0  0  0  0  0  0  0  0  0  0  0
   -5.0745    0.2474  -21.8012 C   0  0  0  0  0  0  0  0  0  0  0  0
   -5.5511   -0.0427  -20.4950 C   0  0  0  0  0  0  0  0  0  0  0  0
   -8.8317   -1.0148  -21.4689 C   0  0  0  0  0  0  0  0  0  0  0  0
   -9.3951   -0.0964  -20.9119 O   0  0  0  0  0  0  0  0  0  0  0  0
   -9.4324   -1.9380  -22.5729 C   0  0  1  0  0  0  0  0  0  0  0  0
   -9.2707   -1.2373  -23.9570 C   0  0  0  0  0  0  0  0  0  0  0  0
  -10.1240   -0.0750  -24.1199 N   0  0  0  0  0  0  0  0  0  0  0  0
   -9.6028    1.1393  -24.7345 C   0  0  0  0  0  0  0  0  0  0  0  0
   -8.7447    1.9107  -23.7922 C   0  0  0  0  0  0  0  0  0  0  0  0
   -9.1210    2.4952  -22.6106 C   0  0  0  0  0  0  0  0  0  0  0  0
   -7.9965    3.2337  -22.2065 C   0  0  0  0  0  0  0  0  0  0  0  0
   -6.9841    3.0851  -23.0528 N   0  0  0  0  0  0  0  0  0  0  0  0
   -7.4552    2.2690  -24.0125 N   0  0  0  0  0  0  0  0  0  0  0  0
   -6.5667    1.7561  -25.0336 C   0  0  0  0  0  0  0  0  0  0  0  0
  -11.4306   -0.0893  -23.7168 C   0  0  0  0  0  0  0  0  0  0  0  0
  -12.2231    0.7954  -24.0116 O   0  0  0  0  0  0  0  0  0  0  0  0
  -11.8596   -1.2477  -22.8689 C   0  0  0  0  0  0  0  0  0  0  0  0
  -13.2231   -1.3354  -22.5786 C   0  0  0  0  0  0  0  0  0  0  0  0
  -13.7026   -2.2901  -21.7117 C   0  0  0  0  0  0  0  0  0  0  0  0
  -12.7886   -3.2179  -21.2254 C   0  0  0  0  0  0  0  0  0  0  0  0
  -13.2500   -4.0984  -20.3231 F   0  0  0  0  0  0  0  0  0  0  0  0
  -11.4444   -3.2223  -21.5809 C   0  0  0  0  0  0  0  0  0  0  0  0
  -10.9314   -2.1757  -22.3581 C   0  0  0  0  0  0  0  0  0  0  0  0
  2  1  1  6
  2  3  1  0
  3  4  1  0
  4  5  1  0
  5  6  2  0
  6  7  1  0
  7  8  2  0
  8  9  1  0
  9 10  2  0
 10 11  1  0
 11 12  2  0
 12 13  1  0
 13 14  2  0
  4 15  1  0
 15 16  2  0
 15 17  1  0
 17 18  1  6
 18 19  1  0
 19 20  1  0
 20 21  1  0
 21 22  2  0
 22 23  1  0
 23 24  2  0
 24 25  1  0
 25 26  1  0
 19 27  1  0
 27 28  2  0
 27 29  1  0
 29 30  2  0
 30 31  1  0
 31 32  2  0
 32 33  1  0
 32 34  1  0
 34 35  2  0
 17  2  1  0
 25 21  1  0
 35 29  1  0
 14  5  1  0
 35 17  1  0
 14  9  1  0
M  END
>  <cnnaffinities>  (177) 
[6.67017, 6.41286, 6.50327]

>  <score>  (177) 
6.67017

>  <index>  (177) 
87

>  <Smiles>  (177) 
C([C@]1(C(N(c2c(nc(c3c(c(c(c(c23)[H])[H])[H])[H])[H])[H])C(=O)[C@]21C(N(C(c1c(c(nn1C([H])([H])[H])[H])[H])([H])[H])C(=O)c1c(c(c(F)c(c21)[H])[H])[H])([H])[H])([H])[H])[H])([H])([H])[H]

>  <h>  (177) 
<NA>

>  <Training>  (177) 
True

>  <Success>  (177) 
True

>  <enamine_searched>  (177) 
False

>  <enamine_id>  (177) 
nan

$$$$

     RDKit          3D

 22 24  0  0  0  0  0  0  0  0999 V2000
   -8.4226    0.7625  -21.5748 O   0  0  0  0  0  0  0  0  0  0  0  0
   -8.5470   -0.4394  -21.7603 C   0  0  0  0  0  0  0  0  0  0  0  0
   -7.4825   -1.4216  -21.2634 C   0  0  0  0  0  0  0  0  0  0  0  0
   -6.6096   -0.8299  -20.1838 C   0  0  0  0  0  0  0  0  0  0  0  0
   -6.9074   -1.0486  -18.8650 C   0  0  0  0  0  0  0  0  0  0  0  0
   -6.2294   -0.5471  -17.7971 N   0  0  0  0  0  0  0  0  0  0  0  0
   -5.1882    0.2089  -18.0669 C   0  0  0  0  0  0  0  0  0  0  0  0
   -4.7533    0.5233  -19.3820 C   0  0  0  0  0  0  0  0  0  0  0  0
   -3.6233    1.3489  -19.6152 C   0  0  0  0  0  0  0  0  0  0  0  0
   -3.2287    1.6444  -20.8931 C   0  0  0  0  0  0  0  0  0  0  0  0
   -3.9508    1.1246  -21.9920 C   0  0  0  0  0  0  0  0  0  0  0  0
   -5.0515    0.3273  -21.7913 C   0  0  0  0  0  0  0  0  0  0  0  0
   -5.4838   -0.0002  -20.4777 C   0  0  0  0  0  0  0  0  0  0  0  0
   -9.6535   -0.9603  -22.3824 N   0  0  0  0  0  0  0  0  0  0  0  0
  -10.7449   -0.0422  -22.6740 C   0  0  0  0  0  0  0  0  0  0  0  0
  -12.0675   -0.7743  -22.5835 C   0  0  0  0  0  0  0  0  0  0  0  0
  -12.1973   -1.8545  -23.6611 C   0  0  0  0  0  0  0  0  0  0  0  0
  -13.1287   -2.9389  -23.1426 C   0  0  0  0  0  0  0  0  0  0  0  0
  -12.6641   -3.3779  -21.9304 F   0  0  0  0  0  0  0  0  0  0  0  0
  -14.3889   -2.4548  -22.9411 F   0  0  0  0  0  0  0  0  0  0  0  0
  -10.8079   -2.4347  -23.9853 C   0  0  0  0  0  0  0  0  0  0  0  0
   -9.8427   -2.3494  -22.7976 C   0  0  0  0  0  0  0  0  0  0  0  0
  1  2  2  0
  2  3  1  0
  3  4  1  0
  4  5  2  0
  5  6  1  0
  6  7  2  0
  7  8  1  0
  8  9  2  0
  9 10  1  0
 10 11  2  0
 11 12  1  0
 12 13  2  0
  2 14  1  0
 14 15  1  0
 15 16  1  0
 16 17  1  0
 17 18  1  0
 18 19  1  0
 18 20  1  0
 17 21  1  0
 21 22  1  0
 13  4  1  0
 22 14  1  0
 13  8  1  0
M  END
>  <cnnaffinities>  (178) 
[5.30478, 4.97616, 5.28951, 4.94195, 4.94171, 4.75794, 4.89236, 4.64202, 4.64209, 4.73759, 4.73752, 5.0529, 5.05288, 4.89622, 4.85821, 4.79053, 4.77622, 5.03655, 4.77499, 4.62663, 4.62842, 4.70368, 4.70375, 4.86875, 4.86789, 4.8615, 5.02235, 5.01192, 5.07863, 5.07863, 5.09543, 5.09484, 5.2644, 5.2644, 5.1299, 4.75047, 4.81087, 4.8107, 5.00593, 4.74934, 4.74929, 4.99476]

>  <score>  (178) 
5.30478

>  <index>  (178) 
88

>  <Smiles>  (178) 
O=C(C(c1c(nc(c2c(c(c(c(c12)[H])[H])[H])[H])[H])[H])([H])[H])N1C(C(C(C(F)(F)[H])(C(C1([H])[H])([H])[H])[H])([H])[H])([H])[H]

>  <h>  (178) 
<NA>

>  <Training>  (178) 
True

>  <Success>  (178) 
True

>  <enamine_searched>  (178) 
False

>  <enamine_id>  (178) 
nan

$$$$

     RDKit          3D

 20 22  0  0  0  0  0  0  0  0999 V2000
    5.3903   -1.9741   21.9890 O   0  0  0  0  0  0  0  0  0  0  0  0
    6.4305   -1.3578   22.1339 C   0  0  0  0  0  0  0  0  0  0  0  0
    6.8862   -0.3430   21.0657 C   0  0  0  0  0  0  0  0  0  0  0  0
    5.8665   -0.1760   19.9704 C   0  0  0  0  0  0  0  0  0  0  0  0
    6.0312   -0.8096   18.7689 C   0  0  0  0  0  0  0  0  0  0  0  0
    5.2170   -0.6801   17.6879 N   0  0  0  0  0  0  0  0  0  0  0  0
    4.1618    0.0836   17.8288 C   0  0  0  0  0  0  0  0  0  0  0  0
    3.8184    0.7408   19.0418 C   0  0  0  0  0  0  0  0  0  0  0  0
    2.6321    1.5043   19.1729 C   0  0  0  0  0  0  0  0  0  0  0  0
    2.3196    2.1245   20.3516 C   0  0  0  0  0  0  0  0  0  0  0  0
    3.1959    2.0158   21.4526 C   0  0  0  0  0  0  0  0  0  0  0  0
    4.3541    1.2824   21.3533 C   0  0  0  0  0  0  0  0  0  0  0  0
    4.6942    0.6169   20.1462 C   0  0  0  0  0  0  0  0  0  0  0  0
    7.2136   -1.5281   23.2605 N   0  0  0  0  0  0  0  0  0  0  0  0
    6.7824   -2.5788   24.1917 C   0  0  0  0  0  0  0  0  0  0  0  0
    7.1292   -3.9880   23.7576 C   0  0  0  0  0  0  0  0  0  0  0  0
    8.3769   -4.3858   23.5263 C   0  0  0  0  0  0  0  0  0  0  0  0
    9.5928   -3.5057   23.7057 C   0  0  0  0  0  0  0  0  0  0  0  0
    9.5947   -2.2317   22.8458 C   0  0  0  0  0  0  0  0  0  0  0  0
    8.6217   -1.1542   23.3283 C   0  0  0  0  0  0  0  0  0  0  0  0
  1  2  2  0
  2  3  1  0
  3  4  1  0
  4  5  2  0
  5  6  1  0
  6  7  2  0
  7  8  1  0
  8  9  2  0
  9 10  1  0
 10 11  2  0
 11 12  1  0
 12 13  2  0
  2 14  1  0
 14 15  1  0
 15 16  1  0
 16 17  2  0
 17 18  1  0
 18 19  1  0
 19 20  1  0
 13  4  1  0
 20 14  1  0
 13  8  1  0
M  END
>  <cnnaffinities>  (179) 
[5.08194, 4.90385, 5.02391, 4.80015, 4.89011, 5.10183, 4.78408, 4.89779, 4.93983, 5.12345, 4.7621, 5.12001, 4.81664, 4.92364, 4.73858, 5.04589, 4.9945, 5.0276, 4.97858]

>  <score>  (179) 
5.08194

>  <index>  (179) 
89

>  <Smiles>  (179) 
O=C(C(c1c(nc(c2c(c(c(c(c12)[H])[H])[H])[H])[H])[H])([H])[H])N1C(C(=C(C(C(C1([H])[H])([H])[H])([H])[H])[H])[H])([H])[H]

>  <h>  (179) 
<NA>

>  <Training>  (179) 
True

>  <Success>  (179) 
True

>  <enamine_searched>  (179) 
False

>  <enamine_id>  (179) 
nan

$$$$

     RDKit          3D

 34 39  0  0  0  0  0  0  0  0999 V2000
    8.1331   -1.7551   24.0810 C   0  0  0  0  0  0  0  0  0  0  0  0
    8.1714   -1.1641   22.6769 C   0  0  1  0  0  0  0  0  0  0  0  0
    6.8974   -1.3931   21.8583 C   0  0  0  0  0  0  0  0  0  0  0  0
    6.8863   -0.2630   20.9554 N   0  0  0  0  0  0  0  0  0  0  0  0
    5.9235   -0.1172   19.9356 C   0  0  0  0  0  0  0  0  0  0  0  0
    6.0980   -0.7660   18.7439 C   0  0  0  0  0  0  0  0  0  0  0  0
    5.2725   -0.6406   17.6806 N   0  0  0  0  0  0  0  0  0  0  0  0
    4.2184    0.1270   17.8271 C   0  0  0  0  0  0  0  0  0  0  0  0
    3.8875    0.8037   19.0354 C   0  0  0  0  0  0  0  0  0  0  0  0
    2.7175    1.5988   19.1562 C   0  0  0  0  0  0  0  0  0  0  0  0
    2.3913    2.1796   20.3497 C   0  0  0  0  0  0  0  0  0  0  0  0
    3.2306    2.0174   21.4746 C   0  0  0  0  0  0  0  0  0  0  0  0
    4.3839    1.2771   21.3750 C   0  0  0  0  0  0  0  0  0  0  0  0
    4.7494    0.6647   20.1423 C   0  0  0  0  0  0  0  0  0  0  0  0
    7.7001    0.7802   21.3254 C   0  0  0  0  0  0  0  0  0  0  0  0
    7.7411    1.8596   20.7560 O   0  0  0  0  0  0  0  0  0  0  0  0
    8.5068    0.3511   22.5662 C   0  0  1  0  0  0  0  0  0  0  0  0
    7.9975    1.1519   23.8043 C   0  0  0  0  0  0  0  0  0  0  0  0
    8.3973    2.5474   23.7834 N   0  0  0  0  0  0  0  0  0  0  0  0
    7.4416    3.5624   24.2099 C   0  0  0  0  0  0  0  0  0  0  0  0
    6.5791    4.0407   23.0519 C   0  0  0  0  0  0  0  0  0  0  0  0
    7.3911    4.8404   22.0972 N   0  0  0  0  0  0  0  0  0  0  0  0
    7.8632    6.2361   22.5608 C   0  0  0  0  0  0  0  0  0  0  0  0
    7.0880    6.9403   21.4154 C   0  0  0  0  0  0  0  0  0  0  0  0
    6.6728    5.5242   20.9266 C   0  0  0  0  0  0  0  0  0  0  0  0
    9.6104    2.9481   23.3175 C   0  0  0  0  0  0  0  0  0  0  0  0
    9.9509    4.1306   23.3094 O   0  0  0  0  0  0  0  0  0  0  0  0
   10.5051    1.8763   22.7650 C   0  0  0  0  0  0  0  0  0  0  0  0
   11.8725    2.1386   22.6570 C   0  0  0  0  0  0  0  0  0  0  0  0
   12.7641    1.1699   22.2312 C   0  0  0  0  0  0  0  0  0  0  0  0
   12.2410   -0.0518   21.8191 C   0  0  0  0  0  0  0  0  0  0  0  0
   13.2992   -1.3309   21.2868 Cl  0  0  0  0  0  0  0  0  0  0  0  0
   10.8815   -0.2999   21.8364 C   0  0  0  0  0  0  0  0  0  0  0  0
    9.9874    0.6342   22.3806 C   0  0  0  0  0  0  0  0  0  0  0  0
  2  1  1  1
  2  3  1  0
  3  4  1  0
  4  5  1  0
  5  6  2  0
  6  7  1  0
  7  8  2  0
  8  9  1  0
  9 10  2  0
 10 11  1  0
 11 12  2  0
 12 13  1  0
 13 14  2  0
  4 15  1  0
 15 16  2  0
 15 17  1  0
 17 18  1  1
 18 19  1  0
 19 20  1  0
 20 21  1  0
 21 22  1  0
 22 23  1  0
 23 24  1  0
 24 25  1  0
 19 26  1  0
 26 27  2  0
 26 28  1  0
 28 29  2  0
 29 30  1  0
 30 31  2  0
 31 32  1  0
 31 33  1  0
 33 34  2  0
 17  2  1  0
 25 22  1  0
 34 28  1  0
 14  5  1  0
 34 17  1  0
 14  9  1  0
M  CHG  1  22   1
M  END
>  <cnnaffinities>  (180) 
[6.32848]

>  <score>  (180) 
6.32848

>  <index>  (180) 
90

>  <Smiles>  (180) 
C([C@]1(C(N(c2c(nc(c3c(c(c(c(c23)[H])[H])[H])[H])[H])[H])C(=O)[C@]21C(N(C(C([N+]1(C(C(C1([H])[H])([H])[H])([H])[H])[H])([H])[H])([H])[H])C(=O)c1c(c(c(Cl)c(c21)[H])[H])[H])([H])[H])([H])[H])[H])([H])([H])[H]

>  <h>  (180) 
<NA>

>  <Training>  (180) 
True

>  <Success>  (180) 
True

>  <enamine_searched>  (180) 
False

>  <enamine_id>  (180) 
nan

$$$$

     RDKit          3D

 21 23  0  0  0  0  0  0  0  0999 V2000
   -8.7221    1.3568  -26.5383 C   0  0  0  0  0  0  0  0  0  0  0  0
   -7.4248    1.1173  -25.7540 C   0  0  0  0  0  0  0  0  0  0  0  0
   -6.2436    1.4933  -26.6546 C   0  0  0  0  0  0  0  0  0  0  0  0
   -7.3929    1.9816  -24.4851 C   0  0  0  0  0  0  0  0  0  0  0  0
   -8.3843    1.5279  -23.4124 C   0  0  0  0  0  0  0  0  0  0  0  0
   -8.1760    0.1176  -23.1109 N   0  0  0  0  0  0  0  0  0  0  0  0
   -8.3851   -0.3132  -21.7960 C   0  0  0  0  0  0  0  0  0  0  0  0
   -9.1954    0.2049  -21.0587 O   0  0  0  0  0  0  0  0  0  0  0  0
   -7.4451   -1.4115  -21.2709 C   0  0  0  0  0  0  0  0  0  0  0  0
   -6.5714   -0.8341  -20.1741 C   0  0  0  0  0  0  0  0  0  0  0  0
   -6.8774   -1.0412  -18.8542 C   0  0  0  0  0  0  0  0  0  0  0  0
   -6.1958   -0.5357  -17.7896 N   0  0  0  0  0  0  0  0  0  0  0  0
   -5.1578    0.2202  -18.0620 C   0  0  0  0  0  0  0  0  0  0  0  0
   -4.7242    0.5343  -19.3785 C   0  0  0  0  0  0  0  0  0  0  0  0
   -3.6028    1.3692  -19.6211 C   0  0  0  0  0  0  0  0  0  0  0  0
   -3.2129    1.6635  -20.8999 C   0  0  0  0  0  0  0  0  0  0  0  0
   -3.9316    1.1294  -21.9938 C   0  0  0  0  0  0  0  0  0  0  0  0
   -5.0192    0.3169  -21.7846 C   0  0  0  0  0  0  0  0  0  0  0  0
   -5.4506   -0.0013  -20.4702 C   0  0  0  0  0  0  0  0  0  0  0  0
   -8.2739   -0.7737  -24.2602 C   0  0  0  0  0  0  0  0  0  0  0  0
   -7.2939   -0.3579  -25.3504 C   0  0  0  0  0  0  0  0  0  0  0  0
  1  2  1  0
  2  3  1  0
  2  4  1  0
  4  5  1  0
  5  6  1  0
  6  7  1  0
  7  8  2  0
  7  9  1  0
  9 10  1  0
 10 11  2  0
 11 12  1  0
 12 13  2  0
 13 14  1  0
 14 15  2  0
 15 16  1  0
 16 17  2  0
 17 18  1  0
 18 19  2  0
  6 20  1  0
 20 21  1  0
 21  2  1  0
 19 10  1  0
 19 14  1  0
M  END
>  <cnnaffinities>  (181) 
[4.94606, 4.94594, 4.94601, 4.94615, 5.07907, 4.70064, 4.70088, 4.70087, 4.97938, 4.97931, 4.97931, 4.97931, 5.1406, 4.91817, 4.91816, 4.91817, 4.91906]

>  <score>  (181) 
4.94606

>  <index>  (181) 
89

>  <Smiles>  (181) 
C(C1(C([H])([H])[H])C(C(N(C(=O)C(c2c(nc(c3c(c(c(c(c23)[H])[H])[H])[H])[H])[H])([H])[H])C(C1([H])[H])([H])[H])([H])[H])([H])[H])([H])([H])[H]

>  <h>  (181) 
<NA>

>  <Training>  (181) 
True

>  <Success>  (181) 
True

>  <enamine_searched>  (181) 
False

>  <enamine_id>  (181) 
nan

$$$$

     RDKit          3D

 38 42  0  0  0  0  0  0  0  0999 V2000
   -7.5200    3.1687  -22.1018 C   0  0  0  0  0  0  0  0  0  0  0  0
   -8.6344    2.5776  -22.8348 N   0  0  0  0  0  0  0  0  0  0  0  0
   -8.3781    1.7494  -23.8913 C   0  0  0  0  0  0  0  0  0  0  0  0
   -7.2418    1.4620  -24.2442 O   0  0  0  0  0  0  0  0  0  0  0  0
   -9.6027    1.2108  -24.6437 C   0  0  0  0  0  0  0  0  0  0  0  0
  -10.1038   -0.0147  -24.0367 N   0  0  0  0  0  0  0  0  0  0  0  0
   -9.2389   -1.1822  -23.9575 C   0  0  0  0  0  0  0  0  0  0  0  0
   -9.3547   -1.9019  -22.5787 C   0  0  2  0  0  0  0  0  0  0  0  0
   -8.7445   -0.9688  -21.4920 C   0  0  0  0  0  0  0  0  0  0  0  0
   -9.2630    0.0066  -20.9893 O   0  0  0  0  0  0  0  0  0  0  0  0
   -7.4710   -1.4110  -21.1904 N   0  0  0  0  0  0  0  0  0  0  0  0
   -6.6900   -0.8145  -20.1681 C   0  0  0  0  0  0  0  0  0  0  0  0
   -6.9912   -1.0507  -18.8484 C   0  0  0  0  0  0  0  0  0  0  0  0
   -6.2786   -0.5726  -17.7982 N   0  0  0  0  0  0  0  0  0  0  0  0
   -5.2310    0.1720  -18.0695 C   0  0  0  0  0  0  0  0  0  0  0  0
   -4.7996    0.4968  -19.3885 C   0  0  0  0  0  0  0  0  0  0  0  0
   -3.6655    1.3210  -19.6295 C   0  0  0  0  0  0  0  0  0  0  0  0
   -3.2910    1.6288  -20.9103 C   0  0  0  0  0  0  0  0  0  0  0  0
   -4.0365    1.1394  -22.0051 C   0  0  0  0  0  0  0  0  0  0  0  0
   -5.1468    0.3528  -21.7970 C   0  0  0  0  0  0  0  0  0  0  0  0
   -5.5517   -0.0020  -20.4804 C   0  0  0  0  0  0  0  0  0  0  0  0
   -7.0462   -2.5505  -21.9719 C   0  0  0  0  0  0  0  0  0  0  0  0
   -8.3876   -3.1224  -22.4708 C   0  0  2  0  0  0  0  0  0  0  0  0
   -8.2432   -3.9646  -23.7349 C   0  0  0  0  0  0  0  0  0  0  0  0
   -7.3732   -5.4970  -23.4487 S   0  0  0  0  0  0  0  0  0  0  0  0
   -5.9731   -5.2175  -23.1610 O   0  0  0  0  0  0  0  0  0  0  0  0
   -8.1633   -6.3174  -22.5414 O   0  0  0  0  0  0  0  0  0  0  0  0
   -7.3867   -6.1404  -24.9806 N   0  0  0  0  0  0  0  0  0  0  0  0
   -8.6020   -6.7739  -25.4750 C   0  0  0  0  0  0  0  0  0  0  0  0
  -10.8448   -2.1701  -22.3364 C   0  0  0  0  0  0  0  0  0  0  0  0
  -11.3217   -3.2285  -21.5480 C   0  0  0  0  0  0  0  0  0  0  0  0
  -12.6656   -3.2538  -21.1938 C   0  0  0  0  0  0  0  0  0  0  0  0
  -13.1232   -4.0991  -20.2531 F   0  0  0  0  0  0  0  0  0  0  0  0
  -13.6023   -2.3735  -21.7088 C   0  0  0  0  0  0  0  0  0  0  0  0
  -13.1600   -1.3822  -22.5509 C   0  0  0  0  0  0  0  0  0  0  0  0
  -11.7983   -1.2601  -22.8294 C   0  0  0  0  0  0  0  0  0  0  0  0
  -11.4020   -0.0536  -23.6229 C   0  0  0  0  0  0  0  0  0  0  0  0
  -12.1967    0.8464  -23.8659 O   0  0  0  0  0  0  0  0  0  0  0  0
  1  2  1  0
  2  3  1  0
  3  4  2  0
  3  5  1  0
  5  6  1  0
  6  7  1  0
  8  7  1  6
  8  9  1  0
  9 10  2  0
  9 11  1  0
 11 12  1  0
 12 13  2  0
 13 14  1  0
 14 15  2  0
 15 16  1  0
 16 17  2  0
 17 18  1  0
 18 19  2  0
 19 20  1  0
 20 21  2  0
 11 22  1  0
 22 23  1  0
 23 24  1  6
 24 25  1  0
 25 26  2  0
 25 27  2  0
 25 28  1  0
 28 29  1  0
  8 30  1  0
 30 31  2  0
 31 32  1  0
 32 33  1  0
 32 34  2  0
 34 35  1  0
 35 36  2  0
 36 37  1  0
 37 38  2  0
 37  6  1  0
 23  8  1  0
 36 30  1  0
 21 12  1  0
 21 16  1  0
M  END
>  <cnnaffinities>  (182) 
[6.90921, 6.50117, 6.79722, 6.79824, 6.71337, 6.89979, 6.69788]

>  <score>  (182) 
6.90921

>  <index>  (182) 
90

>  <Smiles>  (182) 
C(N(C(=O)C(N1C([C@@]2(C(=O)N(c3c(nc(c4c(c(c(c(c34)[H])[H])[H])[H])[H])[H])C([C@@]2(C(S(=O)(=O)N(C([H])([H])[H])[H])([H])[H])[H])([H])[H])c2c(c(F)c(c(c2C1=O)[H])[H])[H])([H])[H])([H])[H])[H])([H])([H])[H]

>  <h>  (182) 
<NA>

>  <Training>  (182) 
True

>  <Success>  (182) 
True

>  <enamine_searched>  (182) 
False

>  <enamine_id>  (182) 
nan

$$$$

     RDKit          3D

 40 45  0  0  0  0  0  0  0  0999 V2000
   -7.4591    3.4761  -21.8643 C   0  0  0  0  0  0  0  0  0  0  0  0
   -8.5156    2.9798  -22.7359 N   0  0  0  0  0  0  0  0  0  0  0  0
   -8.1306    2.2087  -23.7941 C   0  0  0  0  0  0  0  0  0  0  0  0
   -6.9564    1.9401  -24.0071 O   0  0  0  0  0  0  0  0  0  0  0  0
   -9.2291    1.6625  -24.7034 C   0  0  0  0  0  0  0  0  0  0  0  0
   -9.7881    0.4626  -24.1172 N   0  0  0  0  0  0  0  0  0  0  0  0
   -8.9687   -0.7402  -24.0679 C   0  0  0  0  0  0  0  0  0  0  0  0
   -9.2241   -1.5592  -22.7755 C   0  0  2  0  0  0  0  0  0  0  0  0
   -8.6340   -0.7907  -21.5671 C   0  0  0  0  0  0  0  0  0  0  0  0
   -9.1017    0.1929  -21.0299 O   0  0  0  0  0  0  0  0  0  0  0  0
   -7.4489   -1.3906  -21.2010 N   0  0  0  0  0  0  0  0  0  0  0  0
   -6.6324   -0.8248  -20.1866 C   0  0  0  0  0  0  0  0  0  0  0  0
   -6.9448   -1.0514  -18.8698 C   0  0  0  0  0  0  0  0  0  0  0  0
   -6.2472   -0.5679  -17.8125 N   0  0  0  0  0  0  0  0  0  0  0  0
   -5.2038    0.1831  -18.0825 C   0  0  0  0  0  0  0  0  0  0  0  0
   -4.7720    0.5119  -19.3996 C   0  0  0  0  0  0  0  0  0  0  0  0
   -3.6458    1.3493  -19.6282 C   0  0  0  0  0  0  0  0  0  0  0  0
   -3.2585    1.6566  -20.9041 C   0  0  0  0  0  0  0  0  0  0  0  0
   -3.9786    1.1477  -22.0068 C   0  0  0  0  0  0  0  0  0  0  0  0
   -5.0798    0.3455  -21.8144 C   0  0  0  0  0  0  0  0  0  0  0  0
   -5.5013   -0.0034  -20.4997 C   0  0  0  0  0  0  0  0  0  0  0  0
   -7.0989   -2.5442  -22.0101 C   0  0  0  0  0  0  0  0  0  0  0  0
   -8.4017   -2.8812  -22.7537 C   0  0  2  0  0  0  0  0  0  0  0  0
   -8.1197   -3.5609  -24.0961 C   0  0  0  0  0  0  0  0  0  0  0  0
   -9.3321   -3.9392  -24.7751 N   0  0  0  0  0  0  0  0  0  0  0  0
   -9.3548   -4.5568  -25.9945 C   0  0  0  0  0  0  0  0  0  0  0  0
   -8.1792   -4.8575  -26.7310 C   0  0  0  0  0  0  0  0  0  0  0  0
   -8.2185   -5.4187  -27.9298 N   0  0  0  0  0  0  0  0  0  0  0  0
   -9.4283   -5.7196  -28.4096 C   0  0  0  0  0  0  0  0  0  0  0  0
  -10.5762   -5.4531  -27.6782 C   0  0  0  0  0  0  0  0  0  0  0  0
  -10.5577   -4.8636  -26.4836 N   0  0  0  0  0  0  0  0  0  0  0  0
  -10.7268   -1.7241  -22.6104 C   0  0  0  0  0  0  0  0  0  0  0  0
  -11.2708   -2.7192  -21.7888 C   0  0  0  0  0  0  0  0  0  0  0  0
  -12.6351   -2.7520  -21.5555 C   0  0  0  0  0  0  0  0  0  0  0  0
  -13.3013   -3.8532  -20.4000 Cl  0  0  0  0  0  0  0  0  0  0  0  0
  -13.5172   -1.8625  -22.1611 C   0  0  0  0  0  0  0  0  0  0  0  0
  -12.9902   -0.8753  -22.9595 C   0  0  0  0  0  0  0  0  0  0  0  0
  -11.6149   -0.7812  -23.1477 C   0  0  0  0  0  0  0  0  0  0  0  0
  -11.1259    0.4356  -23.8600 C   0  0  0  0  0  0  0  0  0  0  0  0
  -11.8784    1.3522  -24.1639 O   0  0  0  0  0  0  0  0  0  0  0  0
  1  2  1  0
  2  3  1  0
  3  4  2  0
  3  5  1  0
  5  6  1  0
  6  7  1  0
  8  7  1  6
  8  9  1  0
  9 10  2  0
  9 11  1  0
 11 12  1  0
 12 13  2  0
 13 14  1  0
 14 15  2  0
 15 16  1  0
 16 17  2  0
 17 18  1  0
 18 19  2  0
 19 20  1  0
 20 21  2  0
 11 22  1  0
 22 23  1  0
 23 24  1  6
 24 25  1  0
 25 26  1  0
 26 27  2  0
 27 28  1  0
 28 29  2  0
 29 30  1  0
 30 31  2  0
  8 32  1  0
 32 33  2  0
 33 34  1  0
 34 35  1  0
 34 36  2  0
 36 37  1  0
 37 38  2  0
 38 39  1  0
 39 40  2  0
 39  6  1  0
 23  8  1  0
 31 26  1  0
 38 32  1  0
 21 12  1  0
 21 16  1  0
M  END
>  <cnnaffinities>  (183) 
[6.54157, 7.13621, 6.74452]

>  <score>  (183) 
6.54157

>  <index>  (183) 
75

>  <Smiles>  (183) 
C(N(C(=O)C(N1C([C@@]2(C(=O)N(c3c(nc(c4c(c(c(c(c34)[H])[H])[H])[H])[H])[H])C([C@@]2(C(N(c2c(nc(c(n2)[H])[H])[H])[H])([H])[H])[H])([H])[H])c2c(c(Cl)c(c(c2C1=O)[H])[H])[H])([H])[H])([H])[H])[H])([H])([H])[H]

>  <h>  (183) 
<NA>

>  <Training>  (183) 
True

>  <Success>  (183) 
True

>  <enamine_searched>  (183) 
False

>  <enamine_id>  (183) 
nan

$$$$

     RDKit          3D

 34 39  0  0  0  0  0  0  0  0999 V2000
    7.8885   -1.6407   24.2540 C   0  0  0  0  0  0  0  0  0  0  0  0
    8.0289   -1.2408   22.7868 C   0  0  1  0  0  0  0  0  0  0  0  0
    6.7103   -1.3663   22.0036 C   0  0  0  0  0  0  0  0  0  0  0  0
    6.8240   -0.3397   20.9947 N   0  0  0  0  0  0  0  0  0  0  0  0
    5.8908   -0.1576   19.9482 C   0  0  0  0  0  0  0  0  0  0  0  0
    6.1290   -0.7267   18.7269 C   0  0  0  0  0  0  0  0  0  0  0  0
    5.3156   -0.5924   17.6513 N   0  0  0  0  0  0  0  0  0  0  0  0
    4.2365    0.1370   17.8016 C   0  0  0  0  0  0  0  0  0  0  0  0
    3.8653    0.7765   19.0200 C   0  0  0  0  0  0  0  0  0  0  0  0
    2.6965    1.5742   19.1332 C   0  0  0  0  0  0  0  0  0  0  0  0
    2.3443    2.1254   20.3327 C   0  0  0  0  0  0  0  0  0  0  0  0
    3.1590    1.9308   21.4728 C   0  0  0  0  0  0  0  0  0  0  0  0
    4.3118    1.1884   21.3852 C   0  0  0  0  0  0  0  0  0  0  0  0
    4.7015    0.6068   20.1464 C   0  0  0  0  0  0  0  0  0  0  0  0
    7.8154    0.5874   21.2226 C   0  0  0  0  0  0  0  0  0  0  0  0
    8.0408    1.5332   20.4994 O   0  0  0  0  0  0  0  0  0  0  0  0
    8.5608    0.2031   22.5207 C   0  0  1  0  0  0  0  0  0  0  0  0
    8.1582    1.1448   23.6948 C   0  0  0  0  0  0  0  0  0  0  0  0
    8.7267    2.4735   23.5988 N   0  0  0  0  0  0  0  0  0  0  0  0
    7.9361    3.6202   24.0521 C   0  0  0  0  0  0  0  0  0  0  0  0
    7.1836    4.2981   22.9383 C   0  0  0  0  0  0  0  0  0  0  0  0
    5.8732    4.1190   22.4457 C   0  0  0  0  0  0  0  0  0  0  0  0
    5.6539    4.8044   21.3260 N   0  0  0  0  0  0  0  0  0  0  0  0
    6.8171    5.4323   21.1082 N   0  0  0  0  0  0  0  0  0  0  0  0
    7.7505    5.1687   22.0467 C   0  0  0  0  0  0  0  0  0  0  0  0
    9.9942    2.7038   23.1394 C   0  0  0  0  0  0  0  0  0  0  0  0
   10.5037    3.8191   23.1690 O   0  0  0  0  0  0  0  0  0  0  0  0
   10.7309    1.5078   22.6004 C   0  0  0  0  0  0  0  0  0  0  0  0
   12.1124    1.6026   22.4226 C   0  0  0  0  0  0  0  0  0  0  0  0
   12.8439    0.5227   21.9691 C   0  0  0  0  0  0  0  0  0  0  0  0
   12.1613   -0.6402   21.6340 C   0  0  0  0  0  0  0  0  0  0  0  0
   12.8550   -1.6947   21.1742 F   0  0  0  0  0  0  0  0  0  0  0  0
   10.7954   -0.7516   21.7640 C   0  0  0  0  0  0  0  0  0  0  0  0
   10.0605    0.3090   22.3100 C   0  0  0  0  0  0  0  0  0  0  0  0
  2  1  1  1
  2  3  1  0
  3  4  1  0
  4  5  1  0
  5  6  2  0
  6  7  1  0
  7  8  2  0
  8  9  1  0
  9 10  2  0
 10 11  1  0
 11 12  2  0
 12 13  1  0
 13 14  2  0
  4 15  1  0
 15 16  2  0
 15 17  1  0
 17 18  1  1
 18 19  1  0
 19 20  1  0
 20 21  1  0
 21 22  1  0
 22 23  2  0
 23 24  1  0
 24 25  1  0
 19 26  1  0
 26 27  2  0
 26 28  1  0
 28 29  2  0
 29 30  1  0
 30 31  2  0
 31 32  1  0
 31 33  1  0
 33 34  2  0
 17  2  1  0
 25 21  2  0
 34 28  1  0
 14  5  1  0
 34 17  1  0
 14  9  1  0
M  END
>  <cnnaffinities>  (184) 
[6.23666]

>  <score>  (184) 
6.23666

>  <index>  (184) 
91

>  <Smiles>  (184) 
C([C@]1(C(N(c2c(nc(c3c(c(c(c(c23)[H])[H])[H])[H])[H])[H])C(=O)[C@]21C(N(C(c1c(nn(c1[H])[H])[H])([H])[H])C(=O)c1c(c(c(F)c(c21)[H])[H])[H])([H])[H])([H])[H])[H])([H])([H])[H]

>  <h>  (184) 
<NA>

>  <Training>  (184) 
True

>  <Success>  (184) 
True

>  <enamine_searched>  (184) 
False

>  <enamine_id>  (184) 
nan

$$$$

     RDKit          3D

 36 41  0  0  0  0  0  0  0  0999 V2000
   -6.9967   -5.5762  -24.9526 C   0  0  0  0  0  0  0  0  0  0  0  0
   -7.3543   -4.8744  -23.7893 O   0  0  0  0  0  0  0  0  0  0  0  0
   -7.9197   -3.6227  -24.0815 C   0  0  0  0  0  0  0  0  0  0  0  0
   -8.2797   -2.9178  -22.7723 C   0  0  1  0  0  0  0  0  0  0  0  0
   -7.0353   -2.6240  -21.9039 C   0  0  0  0  0  0  0  0  0  0  0  0
   -7.3871   -1.4010  -21.2074 N   0  0  0  0  0  0  0  0  0  0  0  0
   -6.5972   -0.8199  -20.1780 C   0  0  0  0  0  0  0  0  0  0  0  0
   -6.9101   -1.0481  -18.8607 C   0  0  0  0  0  0  0  0  0  0  0  0
   -6.2172   -0.5495  -17.8059 N   0  0  0  0  0  0  0  0  0  0  0  0
   -5.1777    0.2063  -18.0744 C   0  0  0  0  0  0  0  0  0  0  0  0
   -4.7391    0.5278  -19.3955 C   0  0  0  0  0  0  0  0  0  0  0  0
   -3.6089    1.3577  -19.6326 C   0  0  0  0  0  0  0  0  0  0  0  0
   -3.2116    1.6388  -20.9122 C   0  0  0  0  0  0  0  0  0  0  0  0
   -3.9226    1.1049  -22.0095 C   0  0  0  0  0  0  0  0  0  0  0  0
   -5.0182    0.3003  -21.8063 C   0  0  0  0  0  0  0  0  0  0  0  0
   -5.4610   -0.0036  -20.4864 C   0  0  0  0  0  0  0  0  0  0  0  0
   -8.4988   -0.7571  -21.6988 C   0  0  0  0  0  0  0  0  0  0  0  0
   -8.9685    0.2504  -21.2240 O   0  0  0  0  0  0  0  0  0  0  0  0
   -9.0396   -1.5627  -22.9114 C   0  0  1  0  0  0  0  0  0  0  0  0
   -8.6817   -0.8649  -24.2521 C   0  0  0  0  0  0  0  0  0  0  0  0
   -9.4526    0.3379  -24.4976 N   0  0  0  0  0  0  0  0  0  0  0  0
   -8.7548    1.5561  -24.8915 C   0  0  0  0  0  0  0  0  0  0  0  0
   -8.3314    2.4305  -23.7280 C   0  0  0  0  0  0  0  0  0  0  0  0
   -7.0297    2.7199  -23.2438 C   0  0  0  0  0  0  0  0  0  0  0  0
   -7.0239    3.5669  -22.2201 N   0  0  0  0  0  0  0  0  0  0  0  0
   -8.3237    3.8477  -22.0617 N   0  0  0  0  0  0  0  0  0  0  0  0
   -9.1459    3.1722  -22.9033 C   0  0  0  0  0  0  0  0  0  0  0  0
  -10.7841    0.4376  -24.2181 C   0  0  0  0  0  0  0  0  0  0  0  0
  -11.4500    1.4269  -24.5091 O   0  0  0  0  0  0  0  0  0  0  0  0
  -11.3757   -0.7263  -23.4879 C   0  0  0  0  0  0  0  0  0  0  0  0
  -12.7656   -0.7981  -23.3951 C   0  0  0  0  0  0  0  0  0  0  0  0
  -13.3470   -1.7247  -22.5529 C   0  0  0  0  0  0  0  0  0  0  0  0
  -12.5306   -2.5530  -21.7832 C   0  0  0  0  0  0  0  0  0  0  0  0
  -13.2865   -3.5988  -20.6149 Cl  0  0  0  0  0  0  0  0  0  0  0  0
  -11.1528   -2.5190  -21.9033 C   0  0  0  0  0  0  0  0  0  0  0  0
  -10.5546   -1.6392  -22.8133 C   0  0  0  0  0  0  0  0  0  0  0  0
  1  2  1  0
  2  3  1  0
  4  3  1  6
  4  5  1  0
  5  6  1  0
  6  7  1  0
  7  8  2  0
  8  9  1  0
  9 10  2  0
 10 11  1  0
 11 12  2  0
 12 13  1  0
 13 14  2  0
 14 15  1  0
 15 16  2  0
  6 17  1  0
 17 18  2  0
 17 19  1  0
 19 20  1  6
 20 21  1  0
 21 22  1  0
 22 23  1  0
 23 24  1  0
 24 25  2  0
 25 26  1  0
 26 27  1  0
 21 28  1  0
 28 29  2  0
 28 30  1  0
 30 31  2  0
 31 32  1  0
 32 33  2  0
 33 34  1  0
 33 35  1  0
 35 36  2  0
 19  4  1  0
 27 23  2  0
 36 30  1  0
 16  7  1  0
 36 19  1  0
 16 11  1  0
M  END
>  <cnnaffinities>  (185) 
[6.46688, 6.83241, 6.3828, 6.62385]

>  <score>  (185) 
6.46688

>  <index>  (185) 
92

>  <Smiles>  (185) 
C(OC([C@]1(C(N(c2c(nc(c3c(c(c(c(c23)[H])[H])[H])[H])[H])[H])C(=O)[C@]21C(N(C(c1c(nn(c1[H])[H])[H])([H])[H])C(=O)c1c(c(c(Cl)c(c21)[H])[H])[H])([H])[H])([H])[H])[H])([H])[H])([H])([H])[H]

>  <h>  (185) 
<NA>

>  <Training>  (185) 
True

>  <Success>  (185) 
True

>  <enamine_searched>  (185) 
False

>  <enamine_id>  (185) 
nan

$$$$

     RDKit          3D

 27 30  0  0  0  0  0  0  0  0999 V2000
    5.9713   -2.4878   21.6719 O   0  0  0  0  0  0  0  0  0  0  0  0
    6.3913   -1.4238   22.0933 C   0  0  0  0  0  0  0  0  0  0  0  0
    6.8612   -0.3560   21.0947 C   0  0  0  0  0  0  0  0  0  0  0  0
    5.8665   -0.1704   19.9719 C   0  0  0  0  0  0  0  0  0  0  0  0
    6.0397   -0.8005   18.7665 C   0  0  0  0  0  0  0  0  0  0  0  0
    5.2310   -0.6609   17.6845 N   0  0  0  0  0  0  0  0  0  0  0  0
    4.1714    0.0964   17.8302 C   0  0  0  0  0  0  0  0  0  0  0  0
    3.8213    0.7512   19.0435 C   0  0  0  0  0  0  0  0  0  0  0  0
    2.6379    1.5194   19.1700 C   0  0  0  0  0  0  0  0  0  0  0  0
    2.3244    2.1286   20.3519 C   0  0  0  0  0  0  0  0  0  0  0  0
    3.2004    2.0167   21.4544 C   0  0  0  0  0  0  0  0  0  0  0  0
    4.3623    1.2885   21.3609 C   0  0  0  0  0  0  0  0  0  0  0  0
    4.6946    0.6239   20.1501 C   0  0  0  0  0  0  0  0  0  0  0  0
    6.4148   -1.1534   23.4579 N   0  0  0  0  0  0  0  0  0  0  0  0
    6.9189    0.0329   23.9749 C   0  0  0  0  0  0  0  0  0  0  0  0
    6.4050    0.8701   24.8971 C   0  0  0  0  0  0  0  0  0  0  0  0
    5.1088    0.9917   25.5890 C   0  0  0  0  0  0  0  0  0  0  0  0
    3.8730    0.5197   25.3100 C   0  0  0  0  0  0  0  0  0  0  0  0
    3.4339   -0.3912   24.2490 C   0  0  0  0  0  0  0  0  0  0  0  0
    4.1298   -1.4310   23.7654 C   0  0  0  0  0  0  0  0  0  0  0  0
    5.4407   -1.9000   24.2890 C   0  0  1  0  0  0  0  0  0  0  0  0
    5.6690   -3.4035   24.2965 C   0  0  0  0  0  0  0  0  0  0  0  0
    4.6375   -4.3324   24.4154 C   0  0  0  0  0  0  0  0  0  0  0  0
    4.9096   -5.7018   24.4238 C   0  0  0  0  0  0  0  0  0  0  0  0
    6.2223   -6.1556   24.3178 C   0  0  0  0  0  0  0  0  0  0  0  0
    7.2569   -5.2300   24.2135 C   0  0  0  0  0  0  0  0  0  0  0  0
    6.9773   -3.8693   24.2150 C   0  0  0  0  0  0  0  0  0  0  0  0
  1  2  2  0
  2  3  1  0
  3  4  1  0
  4  5  2  0
  5  6  1  0
  6  7  2  0
  7  8  1  0
  8  9  2  0
  9 10  1  0
 10 11  2  0
 11 12  1  0
 12 13  2  0
  2 14  1  0
 14 15  1  0
 15 16  2  3
 16 17  1  0
 17 18  2  3
 18 19  1  0
 19 20  2  3
 20 21  1  0
 21 22  1  6
 22 23  2  0
 23 24  1  0
 24 25  2  0
 25 26  1  0
 26 27  2  0
 13  4  1  0
 21 14  1  0
 27 22  1  0
 13  8  1  0
M  END
>  <cnnaffinities>  (186) 
[5.75666, 5.76072, 5.76105, 5.72345, 5.7246, 5.77561, 5.77569]

>  <score>  (186) 
5.75666

>  <index>  (186) 
92

>  <Smiles>  (186) 
O=C(C(c1c(nc(c2c(c(c(c(c12)[H])[H])[H])[H])[H])[H])([H])[H])N1C(=C(C(=C(C(=C([C@]1(c1c(c(c(c(c1[H])[H])[H])[H])[H])[H])[H])[H])[H])[H])[H])[H]

>  <h>  (186) 
<NA>

>  <Training>  (186) 
True

>  <Success>  (186) 
True

>  <enamine_searched>  (186) 
False

>  <enamine_id>  (186) 
nan

$$$$

     RDKit          3D

 32 36  0  0  0  0  0  0  0  0999 V2000
    5.8434    4.9721   20.8092 C   0  0  0  0  0  0  0  0  0  0  0  0
    6.5446    4.0393   21.7087 N   0  0  0  0  0  0  0  0  0  0  0  0
    7.6371    4.6917   22.4785 C   0  0  0  0  0  0  0  0  0  0  0  0
    8.1248    3.8508   23.6593 C   0  0  0  0  0  0  0  0  0  0  0  0
    8.8334    2.6394   23.2712 N   0  0  0  0  0  0  0  0  0  0  0  0
    8.2609    1.3339   23.5403 C   0  0  0  0  0  0  0  0  0  0  0  0
    8.6182    0.2897   22.4456 C   0  0  2  0  0  0  0  0  0  0  0  0
    7.7488    0.6853   21.2360 C   0  0  0  0  0  0  0  0  0  0  0  0
    7.7207    1.7855   20.6894 O   0  0  0  0  0  0  0  0  0  0  0  0
    6.8801   -0.3350   20.9542 N   0  0  0  0  0  0  0  0  0  0  0  0
    5.9131   -0.1493   19.9309 C   0  0  0  0  0  0  0  0  0  0  0  0
    6.1395   -0.7117   18.7036 C   0  0  0  0  0  0  0  0  0  0  0  0
    5.3121   -0.5665   17.6419 N   0  0  0  0  0  0  0  0  0  0  0  0
    4.2367    0.1659   17.8158 C   0  0  0  0  0  0  0  0  0  0  0  0
    3.8968    0.8231   19.0333 C   0  0  0  0  0  0  0  0  0  0  0  0
    2.7322    1.6239   19.1627 C   0  0  0  0  0  0  0  0  0  0  0  0
    2.4263    2.2293   20.3513 C   0  0  0  0  0  0  0  0  0  0  0  0
    3.2892    2.0892   21.4626 C   0  0  0  0  0  0  0  0  0  0  0  0
    4.4358    1.3370   21.3575 C   0  0  0  0  0  0  0  0  0  0  0  0
    4.7665    0.6720   20.1393 C   0  0  0  0  0  0  0  0  0  0  0  0
    6.7147   -1.2419   22.0778 C   0  0  0  0  0  0  0  0  0  0  0  0
    8.0675   -1.1287   22.7953 C   0  0  2  0  0  0  0  0  0  0  0  0
    8.0118   -1.4689   24.2816 C   0  0  0  0  0  0  0  0  0  0  0  0
   10.1230    0.3351   22.1884 C   0  0  0  0  0  0  0  0  0  0  0  0
   10.8680   -0.7818   21.7679 C   0  0  0  0  0  0  0  0  0  0  0  0
   12.2379   -0.6849   21.6296 C   0  0  0  0  0  0  0  0  0  0  0  0
   12.9305   -1.7682   21.2423 F   0  0  0  0  0  0  0  0  0  0  0  0
   12.9315    0.4980   21.8514 C   0  0  0  0  0  0  0  0  0  0  0  0
   12.2048    1.6097   22.2207 C   0  0  0  0  0  0  0  0  0  0  0  0
   10.8217    1.5358   22.3988 C   0  0  0  0  0  0  0  0  0  0  0  0
   10.1197    2.7870   22.8365 C   0  0  0  0  0  0  0  0  0  0  0  0
   10.6833    3.8789   22.8061 O   0  0  0  0  0  0  0  0  0  0  0  0
  1  2  1  0
  2  3  1  0
  3  4  1  0
  4  5  1  0
  5  6  1  0
  7  6  1  1
  7  8  1  0
  8  9  2  0
  8 10  1  0
 10 11  1  0
 11 12  2  0
 12 13  1  0
 13 14  2  0
 14 15  1  0
 15 16  2  0
 16 17  1  0
 17 18  2  0
 18 19  1  0
 19 20  2  0
 10 21  1  0
 21 22  1  0
 22 23  1  1
  7 24  1  0
 24 25  2  0
 25 26  1  0
 26 27  1  0
 26 28  2  0
 28 29  1  0
 29 30  2  0
 30 31  1  0
 31 32  2  0
 31  5  1  0
 22  7  1  0
 30 24  1  0
 20 11  1  0
 20 15  1  0
M  CHG  1   2   1
M  END
>  <cnnaffinities>  (187) 
[5.92199]

>  <score>  (187) 
5.92199

>  <index>  (187) 
93

>  <Smiles>  (187) 
C([N+](C(C(N1C([C@@]2(C(=O)N(c3c(nc(c4c(c(c(c(c34)[H])[H])[H])[H])[H])[H])C([C@@]2(C([H])([H])[H])[H])([H])[H])c2c(c(F)c(c(c2C1=O)[H])[H])[H])([H])[H])([H])[H])([H])[H])([H])[H])([H])([H])[H]

>  <h>  (187) 
<NA>

>  <Training>  (187) 
True

>  <Success>  (187) 
True

>  <enamine_searched>  (187) 
False

>  <enamine_id>  (187) 
nan

$$$$

     RDKit          3D

 36 41  0  0  0  0  0  0  0  0999 V2000
  -10.8375    4.6347  -25.3267 C   0  0  0  0  0  0  0  0  0  0  0  0
   -9.3414    4.4176  -25.5551 C   0  0  0  0  0  0  0  0  0  0  0  0
   -8.6730    3.7932  -24.4218 N   0  0  0  0  0  0  0  0  0  0  0  0
   -8.0938    4.5784  -23.5023 N   0  0  0  0  0  0  0  0  0  0  0  0
   -7.6102    3.7516  -22.5838 C   0  0  0  0  0  0  0  0  0  0  0  0
   -7.8886    2.4128  -22.9159 C   0  0  0  0  0  0  0  0  0  0  0  0
   -8.5956    2.4732  -24.0936 C   0  0  0  0  0  0  0  0  0  0  0  0
   -9.1128    1.3362  -24.9297 C   0  0  0  0  0  0  0  0  0  0  0  0
   -9.6567    0.2523  -24.1366 N   0  0  0  0  0  0  0  0  0  0  0  0
   -8.9337   -1.0021  -24.0316 C   0  0  0  0  0  0  0  0  0  0  0  0
   -9.2189   -1.7370  -22.6927 C   0  0  2  0  0  0  0  0  0  0  0  0
   -8.6541   -0.9185  -21.4975 C   0  0  0  0  0  0  0  0  0  0  0  0
   -9.1910    0.0059  -20.9213 O   0  0  0  0  0  0  0  0  0  0  0  0
   -7.3999   -1.4053  -21.1881 N   0  0  0  0  0  0  0  0  0  0  0  0
   -6.6058   -0.8163  -20.1665 C   0  0  0  0  0  0  0  0  0  0  0  0
   -6.9098   -1.0454  -18.8471 C   0  0  0  0  0  0  0  0  0  0  0  0
   -6.2047   -0.5488  -17.8002 N   0  0  0  0  0  0  0  0  0  0  0  0
   -5.1680    0.2076  -18.0749 C   0  0  0  0  0  0  0  0  0  0  0  0
   -4.7349    0.5272  -19.3937 C   0  0  0  0  0  0  0  0  0  0  0  0
   -3.6114    1.3632  -19.6360 C   0  0  0  0  0  0  0  0  0  0  0  0
   -3.2298    1.6625  -20.9156 C   0  0  0  0  0  0  0  0  0  0  0  0
   -3.9529    1.1360  -22.0095 C   0  0  0  0  0  0  0  0  0  0  0  0
   -5.0445    0.3232  -21.7994 C   0  0  0  0  0  0  0  0  0  0  0  0
   -5.4676   -0.0018  -20.4823 C   0  0  0  0  0  0  0  0  0  0  0  0
   -7.0258   -2.5854  -21.9479 C   0  0  0  0  0  0  0  0  0  0  0  0
   -8.3629   -3.0391  -22.5806 C   0  0  2  0  0  0  0  0  0  0  0  0
   -8.1688   -3.8558  -23.8635 C   0  0  0  0  0  0  0  0  0  0  0  0
  -10.7331   -1.8725  -22.5769 C   0  0  0  0  0  0  0  0  0  0  0  0
  -11.3602   -2.9358  -21.9064 C   0  0  0  0  0  0  0  0  0  0  0  0
  -12.7298   -2.8822  -21.7325 C   0  0  0  0  0  0  0  0  0  0  0  0
  -13.3981   -3.7891  -21.0121 F   0  0  0  0  0  0  0  0  0  0  0  0
  -13.5147   -1.8572  -22.2335 C   0  0  0  0  0  0  0  0  0  0  0  0
  -12.9190   -0.7983  -22.8725 C   0  0  0  0  0  0  0  0  0  0  0  0
  -11.5338   -0.8095  -23.0373 C   0  0  0  0  0  0  0  0  0  0  0  0
  -10.9476    0.3753  -23.7248 C   0  0  0  0  0  0  0  0  0  0  0  0
  -11.6065    1.3907  -23.9287 O   0  0  0  0  0  0  0  0  0  0  0  0
  1  2  1  0
  2  3  1  0
  3  4  1  0
  4  5  2  0
  5  6  1  0
  6  7  2  0
  7  8  1  0
  8  9  1  0
  9 10  1  0
 11 10  1  6
 11 12  1  0
 12 13  2  0
 12 14  1  0
 14 15  1  0
 15 16  2  0
 16 17  1  0
 17 18  2  0
 18 19  1  0
 19 20  2  0
 20 21  1  0
 21 22  2  0
 22 23  1  0
 23 24  2  0
 14 25  1  0
 25 26  1  0
 26 27  1  6
 11 28  1  0
 28 29  2  0
 29 30  1  0
 30 31  1  0
 30 32  2  0
 32 33  1  0
 33 34  2  0
 34 35  1  0
 35 36  2  0
  7  3  1  0
 35  9  1  0
 26 11  1  0
 34 28  1  0
 24 15  1  0
 24 19  1  0
M  END
>  <cnnaffinities>  (188) 
[7.14207, 6.86118, 6.72483]

>  <score>  (188) 
7.14207

>  <index>  (188) 
7

>  <Smiles>  (188) 
C(C(n1nc(c(c1C(N1C([C@@]2(C(=O)N(c3c(nc(c4c(c(c(c(c34)[H])[H])[H])[H])[H])[H])C([C@@]2(C([H])([H])[H])[H])([H])[H])c2c(c(F)c(c(c2C1=O)[H])[H])[H])([H])[H])([H])[H])[H])[H])([H])[H])([H])([H])[H]

>  <h>  (188) 
<NA>

>  <Training>  (188) 
True

>  <Success>  (188) 
True

>  <enamine_searched>  (188) 
False

>  <enamine_id>  (188) 
nan

$$$$

     RDKit          3D

 36 40  0  0  0  0  0  0  0  0999 V2000
    9.9565   -4.1460   27.8456 C   0  0  0  0  0  0  0  0  0  0  0  0
   11.0773   -3.5940   26.9580 C   0  0  0  0  0  0  0  0  0  0  0  0
   10.7092   -2.2008   26.4944 C   0  0  0  0  0  0  0  0  0  0  0  0
   10.6257   -1.2328   27.2010 O   0  0  0  0  0  0  0  0  0  0  0  0
   10.4569   -1.9972   25.0639 N   0  0  2  0  0  0  0  0  0  0  0  0
   11.7255   -1.4537   24.3699 C   0  0  0  0  0  0  0  0  0  0  0  0
   11.3944   -1.2213   22.9204 C   0  0  0  0  0  0  0  0  0  0  0  0
   10.4035   -0.0702   22.8183 C   0  0  0  0  0  0  0  0  0  0  0  0
    9.1979   -0.2475   23.7213 C   0  0  0  0  0  0  0  0  0  0  0  0
    8.0487    0.5509   23.5765 C   0  0  0  0  0  0  0  0  0  0  0  0
    7.9713    1.4426   22.4633 N   0  0  0  0  0  0  0  0  0  0  0  0
    8.2695    2.8628   22.6750 C   0  0  0  0  0  0  0  0  0  0  0  0
    7.0188    3.7249   22.6692 C   0  0  0  0  0  0  0  0  0  0  0  0
    6.6269    4.3238   21.4752 C   0  0  0  0  0  0  0  0  0  0  0  0
    5.4332    5.0275   21.3811 C   0  0  0  0  0  0  0  0  0  0  0  0
    4.6145    5.1567   22.4980 C   0  0  0  0  0  0  0  0  0  0  0  0
    5.0342    4.6042   23.7019 C   0  0  0  0  0  0  0  0  0  0  0  0
    4.0318    4.7932   25.1166 Cl  0  0  0  0  0  0  0  0  0  0  0  0
    6.2249    3.8917   23.8010 C   0  0  0  0  0  0  0  0  0  0  0  0
    7.5509    1.0475   21.2175 C   0  0  0  0  0  0  0  0  0  0  0  0
    7.6994    1.7541   20.2359 O   0  0  0  0  0  0  0  0  0  0  0  0
    6.8634   -0.3253   21.0831 C   0  0  0  0  0  0  0  0  0  0  0  0
    5.8754   -0.2159   19.9758 C   0  0  0  0  0  0  0  0  0  0  0  0
    6.1309   -0.7513   18.7406 C   0  0  0  0  0  0  0  0  0  0  0  0
    5.3522   -0.5752   17.6437 N   0  0  0  0  0  0  0  0  0  0  0  0
    4.2843    0.1719   17.8041 C   0  0  0  0  0  0  0  0  0  0  0  0
    3.9047    0.7909   19.0286 C   0  0  0  0  0  0  0  0  0  0  0  0
    2.7523    1.6053   19.1362 C   0  0  0  0  0  0  0  0  0  0  0  0
    2.4086    2.1823   20.3267 C   0  0  0  0  0  0  0  0  0  0  0  0
    3.2281    2.0044   21.4659 C   0  0  0  0  0  0  0  0  0  0  0  0
    4.3827    1.2656   21.3758 C   0  0  0  0  0  0  0  0  0  0  0  0
    4.7328    0.6135   20.1562 C   0  0  0  0  0  0  0  0  0  0  0  0
    6.9960    0.4928   24.4851 C   0  0  0  0  0  0  0  0  0  0  0  0
    7.0549   -0.3962   25.5559 C   0  0  0  0  0  0  0  0  0  0  0  0
    8.1675   -1.2112   25.7022 C   0  0  0  0  0  0  0  0  0  0  0  0
    9.2333   -1.1141   24.8054 C   0  0  0  0  0  0  0  0  0  0  0  0
  1  2  1  0
  2  3  1  0
  3  4  2  0
  5  3  1  1
  5  6  1  0
  6  7  1  0
  7  8  1  0
  8  9  1  0
  9 10  2  0
 10 11  1  0
 11 12  1  0
 12 13  1  0
 13 14  2  0
 14 15  1  0
 15 16  2  0
 16 17  1  0
 17 18  1  0
 17 19  2  0
 11 20  1  0
 20 21  2  0
 20 22  1  0
 22 23  1  0
 23 24  2  0
 24 25  1  0
 25 26  2  0
 26 27  1  0
 27 28  2  0
 28 29  1  0
 29 30  2  0
 30 31  1  0
 31 32  2  0
 10 33  1  0
 33 34  2  0
 34 35  1  0
 35 36  2  0
 36  5  1  0
 36  9  1  0
 19 13  1  0
 32 23  1  0
 32 27  1  0
M  CHG  1   5   1
M  END
>  <cnnaffinities>  (189) 
[6.49098]

>  <score>  (189) 
6.49098

>  <index>  (189) 
94

>  <Smiles>  (189) 
C(C(C(=O)[N@@+]1(C(C(C(c2c(N(C(c3c(c(c(c(Cl)c3[H])[H])[H])[H])([H])[H])C(=O)C(c3c(nc(c4c(c(c(c(c34)[H])[H])[H])[H])[H])[H])([H])[H])c(c(c(c12)[H])[H])[H])([H])[H])([H])[H])([H])[H])[H])([H])[H])([H])([H])[H]

>  <h>  (189) 
<NA>

>  <Training>  (189) 
True

>  <Success>  (189) 
True

>  <enamine_searched>  (189) 
False

>  <enamine_id>  (189) 
nan

$$$$

     RDKit          3D

 39 43  0  0  0  0  0  0  0  0999 V2000
    7.0369    6.4239   22.1687 C   0  0  0  0  0  0  0  0  0  0  0  0
    7.1329    5.5199   23.2982 N   0  0  0  0  0  0  0  0  0  0  0  0
    6.6141    4.2608   23.1707 C   0  0  0  0  0  0  0  0  0  0  0  0
    5.8816    3.9245   22.2572 O   0  0  0  0  0  0  0  0  0  0  0  0
    6.9975    3.2936   24.2915 C   0  0  0  0  0  0  0  0  0  0  0  0
    8.0361    2.3758   23.8508 N   0  0  0  0  0  0  0  0  0  0  0  0
    7.8190    0.9372   23.8238 C   0  0  0  0  0  0  0  0  0  0  0  0
    8.4737    0.2768   22.5793 C   0  0  2  0  0  0  0  0  0  0  0  0
    7.7132    0.6953   21.3020 C   0  0  0  0  0  0  0  0  0  0  0  0
    7.8164    1.7151   20.6654 O   0  0  0  0  0  0  0  0  0  0  0  0
    6.8435   -0.3269   20.9787 N   0  0  0  0  0  0  0  0  0  0  0  0
    5.8878   -0.1724   19.9573 C   0  0  0  0  0  0  0  0  0  0  0  0
    6.0774   -0.7987   18.7534 C   0  0  0  0  0  0  0  0  0  0  0  0
    5.2655   -0.6557   17.6817 N   0  0  0  0  0  0  0  0  0  0  0  0
    4.2042    0.1033   17.8326 C   0  0  0  0  0  0  0  0  0  0  0  0
    3.8602    0.7612   19.0487 C   0  0  0  0  0  0  0  0  0  0  0  0
    2.6810    1.5433   19.1706 C   0  0  0  0  0  0  0  0  0  0  0  0
    2.3559    2.1339   20.3592 C   0  0  0  0  0  0  0  0  0  0  0  0
    3.2168    2.0122   21.4708 C   0  0  0  0  0  0  0  0  0  0  0  0
    4.3808    1.2895   21.3701 C   0  0  0  0  0  0  0  0  0  0  0  0
    4.7240    0.6315   20.1558 C   0  0  0  0  0  0  0  0  0  0  0  0
    6.9465   -1.5023   21.8054 C   0  0  0  0  0  0  0  0  0  0  0  0
    8.2611   -1.2671   22.5596 C   0  0  2  0  0  0  0  0  0  0  0  0
    8.2806   -1.9614   23.9230 C   0  0  0  0  0  0  0  0  0  0  0  0
    8.5453   -3.7417   23.8399 S   0  0  0  0  0  0  0  0  0  0  0  0
    8.2674   -4.2044   22.4903 O   0  0  0  0  0  0  0  0  0  0  0  0
    7.8479   -4.3509   24.9616 O   0  0  0  0  0  0  0  0  0  0  0  0
   10.1933   -3.8710   24.0932 N   0  0  0  0  0  0  0  0  0  0  0  0
   11.0291   -3.0858   23.1864 C   0  0  0  0  0  0  0  0  0  0  0  0
   10.6272   -3.9269   25.4855 C   0  0  0  0  0  0  0  0  0  0  0  0
    9.9168    0.7381   22.5276 C   0  0  0  0  0  0  0  0  0  0  0  0
   10.9000    0.0126   21.8517 C   0  0  0  0  0  0  0  0  0  0  0  0
   12.2135    0.4505   21.8815 C   0  0  0  0  0  0  0  0  0  0  0  0
   13.1425   -0.3129   21.2827 F   0  0  0  0  0  0  0  0  0  0  0  0
   12.6076    1.6455   22.4695 C   0  0  0  0  0  0  0  0  0  0  0  0
   11.6175    2.4061   23.0585 C   0  0  0  0  0  0  0  0  0  0  0  0
   10.2932    1.9708   23.0777 C   0  0  0  0  0  0  0  0  0  0  0  0
    9.2696    2.9040   23.6336 C   0  0  0  0  0  0  0  0  0  0  0  0
    9.5205    4.0892   23.8557 O   0  0  0  0  0  0  0  0  0  0  0  0
  1  2  1  0
  2  3  1  0
  3  4  2  0
  3  5  1  0
  5  6  1  0
  6  7  1  0
  8  7  1  1
  8  9  1  0
  9 10  2  0
  9 11  1  0
 11 12  1  0
 12 13  2  0
 13 14  1  0
 14 15  2  0
 15 16  1  0
 16 17  2  0
 17 18  1  0
 18 19  2  0
 19 20  1  0
 20 21  2  0
 11 22  1  0
 22 23  1  0
 23 24  1  1
 24 25  1  0
 25 26  2  0
 25 27  2  0
 25 28  1  0
 28 29  1  0
 28 30  1  0
  8 31  1  0
 31 32  2  0
 32 33  1  0
 33 34  1  0
 33 35  2  0
 35 36  1  0
 36 37  2  0
 37 38  1  0
 38 39  2  0
 38  6  1  0
 23  8  1  0
 37 31  1  0
 21 12  1  0
 21 16  1  0
M  END
>  <cnnaffinities>  (190) 
[6.57156, 6.68201, 6.28938, 5.92436, 6.26318, 6.35627, 6.35384]

>  <score>  (190) 
6.57156

>  <index>  (190) 
95

>  <Smiles>  (190) 
C(N(C(=O)C(N1C([C@@]2(C(=O)N(c3c(nc(c4c(c(c(c(c34)[H])[H])[H])[H])[H])[H])C([C@@]2(C(S(=O)(=O)N(C([H])([H])[H])C([H])([H])[H])([H])[H])[H])([H])[H])c2c(c(F)c(c(c2C1=O)[H])[H])[H])([H])[H])([H])[H])[H])([H])([H])[H]

>  <h>  (190) 
<NA>

>  <Training>  (190) 
True

>  <Success>  (190) 
True

>  <enamine_searched>  (190) 
False

>  <enamine_id>  (190) 
nan

$$$$

     RDKit          3D

 29 30  0  0  0  0  0  0  0  0999 V2000
  -10.1493   -1.6018  -23.1498 C   0  0  0  0  0  0  0  0  0  0  0  0
  -11.1759   -2.4041  -22.6830 C   0  0  0  0  0  0  0  0  0  0  0  0
  -12.4809   -1.9602  -22.5763 C   0  0  0  0  0  0  0  0  0  0  0  0
  -13.7425   -3.0073  -21.9828 Cl  0  0  0  0  0  0  0  0  0  0  0  0
  -12.7534   -0.6500  -22.9585 C   0  0  0  0  0  0  0  0  0  0  0  0
  -11.7596    0.1845  -23.4295 C   0  0  0  0  0  0  0  0  0  0  0  0
  -10.4669   -0.3129  -23.5162 C   0  0  0  0  0  0  0  0  0  0  0  0
  -12.0938    1.5511  -23.8169 C   0  0  0  0  0  0  0  0  0  0  0  0
  -11.1233    2.3870  -24.3282 C   0  0  0  0  0  0  0  0  0  0  0  0
  -11.4131    3.6939  -24.7069 C   0  0  0  0  0  0  0  0  0  0  0  0
  -12.6880    4.2057  -24.5848 C   0  0  0  0  0  0  0  0  0  0  0  0
  -13.6588    3.3708  -24.0738 C   0  0  0  0  0  0  0  0  0  0  0  0
  -13.3700    2.0676  -23.6961 C   0  0  0  0  0  0  0  0  0  0  0  0
  -13.0560    5.8583  -25.0647 S   0  0  0  0  0  0  0  0  0  0  0  0
  -14.0702    6.6270  -23.9037 N   0  0  0  0  0  0  0  0  0  0  0  0
  -11.7854    6.6598  -25.1590 O   0  0  0  0  0  0  0  0  0  0  0  0
  -13.6738    5.8096  -26.4158 O   0  0  0  0  0  0  0  0  0  0  0  0
   -8.7546   -2.0932  -23.2574 C   0  0  2  0  0  0  0  0  0  0  0  0
   -8.8428   -3.6166  -23.3386 C   0  0  0  0  0  0  0  0  0  0  0  0
   -6.7189   -0.9940  -22.2917 C   0  0  0  0  0  0  0  0  0  0  0  0
   -6.3518   -0.7206  -23.4624 O   0  0  0  0  0  0  0  0  0  0  0  0
   -7.9338   -1.6910  -22.1401 N   0  0  0  0  0  0  0  0  0  0  0  0
   -5.8522   -0.5645  -21.1884 C   0  0  0  0  0  0  0  0  0  0  0  0
   -5.2595   -1.6404  -20.5255 O   0  0  0  0  0  0  0  0  0  0  0  0
   -5.8445   -1.8431  -18.9881 S   0  0  0  0  0  0  0  0  0  0  0  0
   -5.6504   -3.2873  -18.5921 O   0  0  0  0  0  0  0  0  0  0  0  0
   -7.3186   -1.5532  -18.8944 O   0  0  0  0  0  0  0  0  0  0  0  0
   -5.5148    0.4743  -17.7859 C   0  0  0  0  0  0  0  0  0  0  0  0
   -5.0080   -0.8755  -17.8248 N   0  0  0  0  0  0  0  0  0  0  0  0
 28 29  1  0
 29 25  1  0
 25 26  2  0
 25 27  2  0
 25 24  1  0
 24 23  1  0
 23 20  1  0
 20 21  2  0
 20 22  1  0
 22 18  1  0
 18 19  1  1
 18  1  1  0
  1  2  2  0
  2  3  1  0
  3  4  1  0
  3  5  2  0
  5  6  1  0
  6  8  1  0
  8  9  2  0
  9 10  1  0
 10 11  2  0
 11 14  1  0
 14 15  1  0
 14 16  2  0
 14 17  2  0
 11 12  1  0
 12 13  2  0
  6  7  2  0
  7  1  1  0
 13  8  1  0
M  END
>  <minimizedAffinity>  (191) 
-8.08109

>  <CNNscore>  (191) 
0.8893783689

>  <CNNaffinity>  (191) 
6.6214509010

>  <CNN_VS>  (191) 
5.8889751434

>  <CNNaffinity_variance>  (191) 
0.2609826624

$$$$

     RDKit          3D

 40 45  0  0  0  0  0  0  0  0999 V2000
   -7.3715    3.4620  -21.8563 C   0  0  0  0  0  0  0  0  0  0  0  0
   -8.3365    3.0168  -22.8499 N   0  0  0  0  0  0  0  0  0  0  0  0
   -7.8601    2.2318  -23.8622 C   0  0  0  0  0  0  0  0  0  0  0  0
   -6.6746    1.9695  -23.9986 O   0  0  0  0  0  0  0  0  0  0  0  0
   -8.9041    1.6750  -24.8289 C   0  0  0  0  0  0  0  0  0  0  0  0
   -9.5694    0.5329  -24.2435 N   0  0  0  0  0  0  0  0  0  0  0  0
   -8.8321   -0.7118  -24.1297 C   0  0  0  0  0  0  0  0  0  0  0  0
   -9.1750   -1.4644  -22.8218 C   0  0  2  0  0  0  0  0  0  0  0  0
   -8.5774   -0.7029  -21.6147 C   0  0  0  0  0  0  0  0  0  0  0  0
   -9.0035    0.3152  -21.1140 O   0  0  0  0  0  0  0  0  0  0  0  0
   -7.4458   -1.3685  -21.1969 N   0  0  0  0  0  0  0  0  0  0  0  0
   -6.6230   -0.8203  -20.1780 C   0  0  0  0  0  0  0  0  0  0  0  0
   -6.9383   -1.0478  -18.8629 C   0  0  0  0  0  0  0  0  0  0  0  0
   -6.2423   -0.5618  -17.8051 N   0  0  0  0  0  0  0  0  0  0  0  0
   -5.2001    0.1902  -18.0771 C   0  0  0  0  0  0  0  0  0  0  0  0
   -4.7654    0.5190  -19.3934 C   0  0  0  0  0  0  0  0  0  0  0  0
   -3.6405    1.3548  -19.6314 C   0  0  0  0  0  0  0  0  0  0  0  0
   -3.2570    1.6594  -20.9078 C   0  0  0  0  0  0  0  0  0  0  0  0
   -3.9776    1.1484  -22.0111 C   0  0  0  0  0  0  0  0  0  0  0  0
   -5.0713    0.3388  -21.8097 C   0  0  0  0  0  0  0  0  0  0  0  0
   -5.4928   -0.0019  -20.4937 C   0  0  0  0  0  0  0  0  0  0  0  0
   -7.1463   -2.5627  -21.9640 C   0  0  0  0  0  0  0  0  0  0  0  0
   -8.4485   -2.8376  -22.7360 C   0  0  2  0  0  0  0  0  0  0  0  0
   -8.1913   -3.6007  -24.0384 C   0  0  0  0  0  0  0  0  0  0  0  0
   -9.4191   -3.9302  -24.7268 N   0  0  0  0  0  0  0  0  0  0  0  0
   -9.4254   -4.5736  -25.9244 C   0  0  0  0  0  0  0  0  0  0  0  0
  -10.6293   -4.9178  -26.5637 C   0  0  0  0  0  0  0  0  0  0  0  0
  -10.5299   -5.5292  -27.7890 C   0  0  0  0  0  0  0  0  0  0  0  0
   -9.3625   -5.8108  -28.3944 N   0  0  0  0  0  0  0  0  0  0  0  0
   -8.2951   -5.4627  -27.6897 C   0  0  0  0  0  0  0  0  0  0  0  0
   -8.2472   -4.8600  -26.4986 N   0  0  0  0  0  0  0  0  0  0  0  0
  -10.6848   -1.5283  -22.6984 C   0  0  0  0  0  0  0  0  0  0  0  0
  -11.2974   -2.4772  -21.8741 C   0  0  0  0  0  0  0  0  0  0  0  0
  -12.6696   -2.4659  -21.7099 C   0  0  0  0  0  0  0  0  0  0  0  0
  -13.3931   -3.6098  -20.6231 Cl  0  0  0  0  0  0  0  0  0  0  0  0
  -13.4846   -1.5278  -22.3419 C   0  0  0  0  0  0  0  0  0  0  0  0
  -12.8841   -0.5722  -23.1336 C   0  0  0  0  0  0  0  0  0  0  0  0
  -11.5014   -0.5548  -23.2895 C   0  0  0  0  0  0  0  0  0  0  0  0
  -10.9097    0.6052  -24.0147 C   0  0  0  0  0  0  0  0  0  0  0  0
  -11.5850    1.5716  -24.3521 O   0  0  0  0  0  0  0  0  0  0  0  0
  1  2  1  0
  2  3  1  0
  3  4  2  0
  3  5  1  0
  5  6  1  0
  6  7  1  0
  8  7  1  6
  8  9  1  0
  9 10  2  0
  9 11  1  0
 11 12  1  0
 12 13  2  0
 13 14  1  0
 14 15  2  0
 15 16  1  0
 16 17  2  0
 17 18  1  0
 18 19  2  0
 19 20  1  0
 20 21  2  0
 11 22  1  0
 22 23  1  0
 23 24  1  6
 24 25  1  0
 25 26  1  0
 26 27  2  0
 27 28  1  0
 28 29  2  0
 29 30  1  0
 30 31  2  0
  8 32  1  0
 32 33  2  0
 33 34  1  0
 34 35  1  0
 34 36  2  0
 36 37  1  0
 37 38  2  0
 38 39  1  0
 39 40  2  0
 39  6  1  0
 23  8  1  0
 31 26  1  0
 38 32  1  0
 21 12  1  0
 21 16  1  0
M  END
>  <cnnaffinities>  (192) 
[6.62184, 7.01194]

>  <score>  (192) 
6.62184

>  <index>  (192) 
0

>  <Smiles>  (192) 
C(N(C(=O)C(N1C([C@@]2(C(=O)N(c3c(nc(c4c(c(c(c(c34)[H])[H])[H])[H])[H])[H])C([C@@]2(C(N(c2c(c(nc(n2)[H])[H])[H])[H])([H])[H])[H])([H])[H])c2c(c(Cl)c(c(c2C1=O)[H])[H])[H])([H])[H])([H])[H])[H])([H])([H])[H]

>  <h>  (192) 
<NA>

>  <Training>  (192) 
True

>  <Success>  (192) 
True

>  <enamine_searched>  (192) 
False

>  <enamine_id>  (192) 
nan

$$$$

     RDKit          3D

 22 24  0  0  0  0  0  0  0  0999 V2000
    8.5018    1.2404   20.2959 O   0  0  0  0  0  0  0  0  0  0  0  0
    7.7826    0.8840   21.2132 C   0  0  0  0  0  0  0  0  0  0  0  0
    6.8787   -0.3479   21.1164 C   0  0  0  0  0  0  0  0  0  0  0  0
    5.8654   -0.1788   20.0103 C   0  0  0  0  0  0  0  0  0  0  0  0
    6.0835   -0.7563   18.7888 C   0  0  0  0  0  0  0  0  0  0  0  0
    5.2851   -0.6225   17.6978 N   0  0  0  0  0  0  0  0  0  0  0  0
    4.2078    0.1141   17.8331 C   0  0  0  0  0  0  0  0  0  0  0  0
    3.8429    0.7702   19.0430 C   0  0  0  0  0  0  0  0  0  0  0  0
    2.6769    1.5718   19.1516 C   0  0  0  0  0  0  0  0  0  0  0  0
    2.3489    2.1739   20.3351 C   0  0  0  0  0  0  0  0  0  0  0  0
    3.2071    2.0476   21.4492 C   0  0  0  0  0  0  0  0  0  0  0  0
    4.3582    1.3043   21.3639 C   0  0  0  0  0  0  0  0  0  0  0  0
    4.6987    0.6282   20.1623 C   0  0  0  0  0  0  0  0  0  0  0  0
    7.7117    1.5856   22.3818 N   0  0  0  0  0  0  0  0  0  0  0  0
    8.5063    2.7978   22.5209 C   0  0  0  0  0  0  0  0  0  0  0  0
   10.0043    2.5462   22.5779 C   0  0  0  0  0  0  0  0  0  0  0  0
   10.8539    3.1521   21.6507 C   0  0  0  0  0  0  0  0  0  0  0  0
   12.2236    2.9090   21.6853 C   0  0  0  0  0  0  0  0  0  0  0  0
   12.7583    2.0147   22.5971 C   0  0  0  0  0  0  0  0  0  0  0  0
   11.9161    1.4258   23.5313 C   0  0  0  0  0  0  0  0  0  0  0  0
   12.5816    0.3268   24.7077 Cl  0  0  0  0  0  0  0  0  0  0  0  0
   10.5522    1.6942   23.5377 C   0  0  0  0  0  0  0  0  0  0  0  0
  1  2  2  0
  2  3  1  0
  3  4  1  0
  4  5  2  0
  5  6  1  0
  6  7  2  0
  7  8  1  0
  8  9  2  0
  9 10  1  0
 10 11  2  0
 11 12  1  0
 12 13  2  0
  2 14  1  0
 14 15  1  0
 15 16  1  0
 16 17  2  0
 17 18  1  0
 18 19  2  0
 19 20  1  0
 20 21  1  0
 20 22  2  0
 13  4  1  0
 22 16  1  0
 13  8  1  0
M  END
>  <cnnaffinities>  (193) 
[5.07293]

>  <score>  (193) 
5.07293

>  <index>  (193) 
96

>  <Smiles>  (193) 
O=C(C(c1c(nc(c2c(c(c(c(c12)[H])[H])[H])[H])[H])[H])([H])[H])N(C(c1c(c(c(c(Cl)c1[H])[H])[H])[H])([H])[H])[H]

>  <h>  (193) 
<NA>

>  <Training>  (193) 
True

>  <Success>  (193) 
True

>  <enamine_searched>  (193) 
False

>  <enamine_id>  (193) 
nan

$$$$

     RDKit          3D

 37 41  0  0  0  0  0  0  0  0999 V2000
   -7.4067    3.4745  -21.8342 C   0  0  0  0  0  0  0  0  0  0  0  0
   -8.3832    3.0086  -22.8039 N   0  0  0  0  0  0  0  0  0  0  0  0
   -7.9048    2.2478  -23.8314 C   0  0  0  0  0  0  0  0  0  0  0  0
   -6.7133    2.0157  -23.9792 O   0  0  0  0  0  0  0  0  0  0  0  0
   -8.9488    1.6901  -24.7973 C   0  0  0  0  0  0  0  0  0  0  0  0
   -9.5717    0.5038  -24.2479 N   0  0  0  0  0  0  0  0  0  0  0  0
   -8.7866   -0.7124  -24.1180 C   0  0  0  0  0  0  0  0  0  0  0  0
   -9.1211   -1.4964  -22.8226 C   0  0  2  0  0  0  0  0  0  0  0  0
   -8.5741   -0.7411  -21.5920 C   0  0  0  0  0  0  0  0  0  0  0  0
   -9.0456    0.2480  -21.0655 O   0  0  0  0  0  0  0  0  0  0  0  0
   -7.4246   -1.3717  -21.1771 N   0  0  0  0  0  0  0  0  0  0  0  0
   -6.6139   -0.8077  -20.1621 C   0  0  0  0  0  0  0  0  0  0  0  0
   -6.9281   -1.0402  -18.8500 C   0  0  0  0  0  0  0  0  0  0  0  0
   -6.2312   -0.5521  -17.7941 N   0  0  0  0  0  0  0  0  0  0  0  0
   -5.1897    0.1993  -18.0684 C   0  0  0  0  0  0  0  0  0  0  0  0
   -4.7536    0.5242  -19.3850 C   0  0  0  0  0  0  0  0  0  0  0  0
   -3.6283    1.3572  -19.6289 C   0  0  0  0  0  0  0  0  0  0  0  0
   -3.2474    1.6594  -20.9059 C   0  0  0  0  0  0  0  0  0  0  0  0
   -3.9723    1.1485  -22.0072 C   0  0  0  0  0  0  0  0  0  0  0  0
   -5.0664    0.3425  -21.8023 C   0  0  0  0  0  0  0  0  0  0  0  0
   -5.4830    0.0049  -20.4838 C   0  0  0  0  0  0  0  0  0  0  0  0
   -7.0666   -2.5392  -21.9575 C   0  0  0  0  0  0  0  0  0  0  0  0
   -8.3432   -2.8438  -22.7548 C   0  0  2  0  0  0  0  0  0  0  0  0
   -8.0405   -3.5469  -24.0808 C   0  0  0  0  0  0  0  0  0  0  0  0
   -9.2088   -3.8196  -24.8252 O   0  0  0  0  0  0  0  0  0  0  0  0
   -9.7996   -5.1013  -24.6027 C   0  0  0  0  0  0  0  0  0  0  0  0
  -11.2908   -4.9092  -24.8110 C   0  0  0  0  0  0  0  0  0  0  0  0
   -9.2100   -6.1420  -25.5566 C   0  0  0  0  0  0  0  0  0  0  0  0
  -10.6282   -1.6158  -22.7288 C   0  0  0  0  0  0  0  0  0  0  0  0
  -11.2208   -2.5585  -21.8819 C   0  0  0  0  0  0  0  0  0  0  0  0
  -12.5964   -2.5872  -21.7418 C   0  0  0  0  0  0  0  0  0  0  0  0
  -13.3208   -3.6424  -20.5687 Cl  0  0  0  0  0  0  0  0  0  0  0  0
  -13.4350   -1.7437  -22.4712 C   0  0  0  0  0  0  0  0  0  0  0  0
  -12.8543   -0.7870  -23.2733 C   0  0  0  0  0  0  0  0  0  0  0  0
  -11.4697   -0.6880  -23.3551 C   0  0  0  0  0  0  0  0  0  0  0  0
  -10.9158    0.5199  -24.0310 C   0  0  0  0  0  0  0  0  0  0  0  0
  -11.6229    1.4722  -24.3403 O   0  0  0  0  0  0  0  0  0  0  0  0
  1  2  1  0
  2  3  1  0
  3  4  2  0
  3  5  1  0
  5  6  1  0
  6  7  1  0
  8  7  1  6
  8  9  1  0
  9 10  2  0
  9 11  1  0
 11 12  1  0
 12 13  2  0
 13 14  1  0
 14 15  2  0
 15 16  1  0
 16 17  2  0
 17 18  1  0
 18 19  2  0
 19 20  1  0
 20 21  2  0
 11 22  1  0
 22 23  1  0
 23 24  1  6
 24 25  1  0
 25 26  1  0
 26 27  1  0
 26 28  1  0
  8 29  1  0
 29 30  2  0
 30 31  1  0
 31 32  1  0
 31 33  2  0
 33 34  1  0
 34 35  2  0
 35 36  1  0
 36 37  2  0
 36  6  1  0
 23  8  1  0
 35 29  1  0
 21 12  1  0
 21 16  1  0
M  END
>  <cnnaffinities>  (194) 
[6.62912, 6.99013, 6.41658, 6.65481, 6.67821]

>  <score>  (194) 
6.62912

>  <index>  (194) 
3

>  <Smiles>  (194) 
C(N(C(=O)C(N1C([C@@]2(C(=O)N(c3c(nc(c4c(c(c(c(c34)[H])[H])[H])[H])[H])[H])C([C@@]2(C(OC(C([H])([H])[H])(C([H])([H])[H])[H])([H])[H])[H])([H])[H])c2c(c(Cl)c(c(c2C1=O)[H])[H])[H])([H])[H])([H])[H])[H])([H])([H])[H]

>  <h>  (194) 
<NA>

>  <Training>  (194) 
True

>  <Success>  (194) 
True

>  <enamine_searched>  (194) 
False

>  <enamine_id>  (194) 
nan

$$$$

     RDKit          3D

 23 26  0  0  0  0  0  0  0  0999 V2000
   -8.3035   -1.8553  -26.5135 C   0  0  0  0  0  0  0  0  0  0  0  0
   -7.4883   -2.9617  -25.8442 C   0  0  2  0  0  0  0  0  0  0  0  0
   -8.3341   -4.2144  -25.6200 C   0  0  0  0  0  0  0  0  0  0  0  0
   -9.2692   -4.0325  -24.5767 O   0  0  0  0  0  0  0  0  0  0  0  0
   -8.6159   -3.8825  -23.3342 C   0  0  0  0  0  0  0  0  0  0  0  0
   -7.7646   -2.5997  -23.2878 C   0  0  1  0  0  0  0  0  0  0  0  0
   -6.8356   -2.5415  -24.5201 C   0  0  0  0  0  0  0  0  0  0  0  0
   -8.5848   -1.4127  -23.1247 N   0  0  0  0  0  0  0  0  0  0  0  0
   -8.3721   -0.6976  -21.9744 C   0  0  0  0  0  0  0  0  0  0  0  0
   -8.8970    0.3269  -21.6093 O   0  0  0  0  0  0  0  0  0  0  0  0
   -7.3725   -1.4140  -21.2648 N   0  0  0  0  0  0  0  0  0  0  0  0
   -6.5902   -0.8368  -20.2030 C   0  0  0  0  0  0  0  0  0  0  0  0
   -6.8921   -1.0562  -18.8809 C   0  0  0  0  0  0  0  0  0  0  0  0
   -6.2016   -0.5441  -17.8204 N   0  0  0  0  0  0  0  0  0  0  0  0
   -5.1611    0.2182  -18.0682 C   0  0  0  0  0  0  0  0  0  0  0  0
   -4.7247    0.5320  -19.3883 C   0  0  0  0  0  0  0  0  0  0  0  0
   -3.5949    1.3642  -19.6278 C   0  0  0  0  0  0  0  0  0  0  0  0
   -3.2073    1.6450  -20.9124 C   0  0  0  0  0  0  0  0  0  0  0  0
   -3.9260    1.1113  -22.0032 C   0  0  0  0  0  0  0  0  0  0  0  0
   -5.0190    0.3082  -21.7937 C   0  0  0  0  0  0  0  0  0  0  0  0
   -5.4514   -0.0053  -20.4782 C   0  0  0  0  0  0  0  0  0  0  0  0
   -6.9516   -2.5411  -21.9962 C   0  0  0  0  0  0  0  0  0  0  0  0
   -6.0903   -3.3117  -21.6546 O   0  0  0  0  0  0  0  0  0  0  0  0
  2  1  1  1
  2  3  1  0
  3  4  1  0
  4  5  1  0
  6  5  1  1
  6  7  1  0
  6  8  1  0
  8  9  1  0
  9 10  2  0
  9 11  1  0
 11 12  1  0
 12 13  2  0
 13 14  1  0
 14 15  2  0
 15 16  1  0
 16 17  2  0
 17 18  1  0
 18 19  2  0
 19 20  1  0
 20 21  2  0
 11 22  1  0
 22 23  2  0
  7  2  1  0
 21 12  1  0
 22  6  1  0
 21 16  1  0
M  END
