
     RDKit          3D

 59 63  0  0  0  0  0  0  0  0999 V2000
   -7.0220    3.6281  -22.4643 C   0  0  0  0  0  0  0  0  0  0  0  0
   -7.7524    2.6453  -23.2318 N   0  0  0  0  0  0  0  0  0  0  0  0
   -7.4796    2.5057  -24.5450 C   0  0  0  0  0  0  0  0  0  0  0  0
   -6.7216    3.2440  -25.1602 O   0  0  0  0  0  0  0  0  0  0  0  0
   -8.1631    1.3586  -25.3027 C   0  0  0  0  0  0  0  0  0  0  0  0
   -8.9776    0.4638  -24.5102 N   0  0  0  0  0  0  0  0  0  0  0  0
   -8.5123   -0.8883  -24.2749 C   0  0  0  0  0  0  0  0  0  0  0  0
   -9.0768   -1.4952  -22.9515 C   0  0  2  0  0  0  0  0  0  0  0  0
   -8.4945   -0.6400  -21.7806 C   0  0  0  0  0  0  0  0  0  0  0  0
   -8.8274    0.4919  -21.4829 O   0  0  0  0  0  0  0  0  0  0  0  0
   -7.4749   -1.3348  -21.1728 N   0  0  0  0  0  0  0  0  0  0  0  0
   -6.6498   -0.8006  -20.1315 C   0  0  0  0  0  0  0  0  0  0  0  0
   -6.8790   -1.1527  -18.8215 C   0  0  0  0  0  0  0  0  0  0  0  0
   -6.1032   -0.7792  -17.7728 N   0  0  0  0  0  0  0  0  0  0  0  0
   -5.0688   -0.0160  -18.0252 C   0  0  0  0  0  0  0  0  0  0  0  0
   -4.7306    0.4553  -19.3240 C   0  0  0  0  0  0  0  0  0  0  0  0
   -3.6438    1.3477  -19.5290 C   0  0  0  0  0  0  0  0  0  0  0  0
   -3.3221    1.7583  -20.7915 C   0  0  0  0  0  0  0  0  0  0  0  0
   -4.0555    1.2891  -21.9033 C   0  0  0  0  0  0  0  0  0  0  0  0
   -5.1319    0.4533  -21.7286 C   0  0  0  0  0  0  0  0  0  0  0  0
   -5.5159    0.0290  -20.4233 C   0  0  0  0  0  0  0  0  0  0  0  0
   -7.0769   -2.4981  -21.9437 C   0  0  0  0  0  0  0  0  0  0  0  0
   -8.3916   -2.9056  -22.6716 C   0  0  0  0  0  0  0  0  0  0  0  0
   -8.1502   -3.7400  -23.9361 C   0  0  0  0  0  0  0  0  0  0  0  0
   -9.1229   -3.7801  -21.6484 C   0  0  0  0  0  0  0  0  0  0  0  0
  -10.6089   -1.3484  -23.0608 C   0  0  0  0  0  0  0  0  0  0  0  0
  -11.5609   -2.2823  -22.6310 C   0  0  0  0  0  0  0  0  0  0  0  0
  -12.9023   -1.9542  -22.5797 C   0  0  0  0  0  0  0  0  0  0  0  0
  -13.9902   -3.0827  -21.8270 Cl  0  0  0  0  0  0  0  0  0  0  0  0
  -13.4077   -0.7604  -23.0804 C   0  0  0  0  0  0  0  0  0  0  0  0
  -12.5055    0.1307  -23.6114 C   0  0  0  0  0  0  0  0  0  0  0  0
  -11.1407   -0.1589  -23.6045 C   0  0  0  0  0  0  0  0  0  0  0  0
  -10.2510    0.8628  -24.2254 C   0  0  0  0  0  0  0  0  0  0  0  0
  -10.6413    1.9988  -24.4646 O   0  0  0  0  0  0  0  0  0  0  0  0
   -7.1457    3.4012  -21.4014 H   0  0  0  0  0  0  0  0  0  0  0  0
   -7.3585    4.6549  -22.6586 H   0  0  0  0  0  0  0  0  0  0  0  0
   -5.9640    3.5672  -22.7383 H   0  0  0  0  0  0  0  0  0  0  0  0
   -8.2737    1.9375  -22.7143 H   0  0  0  0  0  0  0  0  0  0  0  0
   -8.7665    1.8018  -26.1048 H   0  0  0  0  0  0  0  0  0  0  0  0
   -7.3684    0.7787  -25.7877 H   0  0  0  0  0  0  0  0  0  0  0  0
   -7.4199   -0.8559  -24.2258 H   0  0  0  0  0  0  0  0  0  0  0  0
   -8.7959   -1.5217  -25.1229 H   0  0  0  0  0  0  0  0  0  0  0  0
   -7.7262   -1.7916  -18.5779 H   0  0  0  0  0  0  0  0  0  0  0  0
   -4.4378    0.2859  -17.1891 H   0  0  0  0  0  0  0  0  0  0  0  0
   -3.0867    1.7047  -18.6653 H   0  0  0  0  0  0  0  0  0  0  0  0
   -2.4968    2.4446  -20.9520 H   0  0  0  0  0  0  0  0  0  0  0  0
   -3.7850    1.6163  -22.9045 H   0  0  0  0  0  0  0  0  0  0  0  0
   -5.7019    0.1369  -22.5973 H   0  0  0  0  0  0  0  0  0  0  0  0
   -6.2491   -2.2724  -22.6396 H   0  0  0  0  0  0  0  0  0  0  0  0
   -6.7306   -3.2700  -21.2512 H   0  0  0  0  0  0  0  0  0  0  0  0
   -9.0898   -3.8723  -24.4882 H   0  0  0  0  0  0  0  0  0  0  0  0
   -7.7720   -4.7322  -23.6652 H   0  0  0  0  0  0  0  0  0  0  0  0
   -7.4309   -3.2735  -24.6177 H   0  0  0  0  0  0  0  0  0  0  0  0
   -8.4366   -4.5185  -21.2189 H   0  0  0  0  0  0  0  0  0  0  0  0
   -9.9284   -4.3471  -22.1151 H   0  0  0  0  0  0  0  0  0  0  0  0
   -9.5124   -3.1622  -20.8400 H   0  0  0  0  0  0  0  0  0  0  0  0
  -11.3195   -3.2729  -22.2953 H   0  0  0  0  0  0  0  0  0  0  0  0
  -14.4650   -0.5290  -23.0401 H   0  0  0  0  0  0  0  0  0  0  0  0
  -12.8279    1.0818  -24.0209 H   0  0  0  0  0  0  0  0  0  0  0  0
  1  2  1  0
  2  3  1  0
  3  4  2  0
  3  5  1  0
  5  6  1  0
  6  7  1  0
  8  7  1  6
  8  9  1  0
  9 10  2  0
  9 11  1  0
 11 12  1  0
 12 13  2  0
 13 14  1  0
 14 15  2  0
 15 16  1  0
 16 17  2  0
 17 18  1  0
 18 19  2  0
 19 20  1  0
 20 21  2  0
 11 22  1  0
 22 23  1  0
 23 24  1  0
 23 25  1  0
  8 26  1  0
 26 27  2  0
 27 28  1  0
 28 29  1  0
 28 30  2  0
 30 31  1  0
 31 32  2  0
 32 33  1  0
 33 34  2  0
 33  6  1  0
 23  8  1  0
 32 26  1  0
 21 12  1  0
 21 16  1  0
  1 35  1  0
  1 36  1  0
  1 37  1  0
  2 38  1  0
  5 39  1  0
  5 40  1  0
  7 41  1  0
  7 42  1  0
 13 43  1  0
 15 44  1  0
 17 45  1  0
 18 46  1  0
 19 47  1  0
 20 48  1  0
 22 49  1  0
 22 50  1  0
 24 51  1  0
 24 52  1  0
 24 53  1  0
 25 54  1  0
 25 55  1  0
 25 56  1  0
 27 57  1  0
 30 58  1  0
 31 59  1  0
M  END
