
     RDKit          3D

 59 63  0  0  0  0  0  0  0  0999 V2000
    7.2922    4.6498   22.3581 C   0  0  0  0  0  0  0  0  0  0  0  0
    8.0664    3.7002   23.1245 N   0  0  0  0  0  0  0  0  0  0  0  0
    7.8262    3.5745   24.4454 C   0  0  0  0  0  0  0  0  0  0  0  0
    7.0614    4.3014   25.0657 O   0  0  0  0  0  0  0  0  0  0  0  0
    8.5580    2.4592   25.2056 C   0  0  0  0  0  0  0  0  0  0  0  0
    9.3798    1.5745   24.4093 N   0  0  0  0  0  0  0  0  0  0  0  0
    8.9476    0.2064   24.2055 C   0  0  0  0  0  0  0  0  0  0  0  0
    9.5000   -0.4060   22.8796 C   0  0  2  0  0  0  0  0  0  0  0  0
    8.8685    0.4136   21.7087 C   0  0  0  0  0  0  0  0  0  0  0  0
    9.1630    1.5493   21.3860 O   0  0  0  0  0  0  0  0  0  0  0  0
    7.8558   -0.3190   21.1346 N   0  0  0  0  0  0  0  0  0  0  0  0
    6.9936    0.1752   20.1037 C   0  0  0  0  0  0  0  0  0  0  0  0
    7.2040   -0.1916   18.7946 C   0  0  0  0  0  0  0  0  0  0  0  0
    6.3954    0.1431   17.7576 N   0  0  0  0  0  0  0  0  0  0  0  0
    5.3458    0.8814   18.0210 C   0  0  0  0  0  0  0  0  0  0  0  0
    5.0228    1.3642   19.3195 C   0  0  0  0  0  0  0  0  0  0  0  0
    3.9161    2.2294   19.5346 C   0  0  0  0  0  0  0  0  0  0  0  0
    3.6106    2.6514   20.7973 C   0  0  0  0  0  0  0  0  0  0  0  0
    4.3809    2.2208   21.8998 C   0  0  0  0  0  0  0  0  0  0  0  0
    5.4763    1.4124   21.7143 C   0  0  0  0  0  0  0  0  0  0  0  0
    5.8435    0.9777   20.4076 C   0  0  0  0  0  0  0  0  0  0  0  0
    7.5075   -1.4802   21.9322 C   0  0  0  0  0  0  0  0  0  0  0  0
    8.8486   -1.8392   22.6370 C   0  0  0  0  0  0  0  0  0  0  0  0
    8.6583   -2.6593   23.9195 C   0  0  0  0  0  0  0  0  0  0  0  0
    9.5817   -2.7096   21.6116 C   0  0  0  0  0  0  0  0  0  0  0  0
   11.0293   -0.2151   22.9525 C   0  0  0  0  0  0  0  0  0  0  0  0
   11.9976   -1.1291   22.5163 C   0  0  0  0  0  0  0  0  0  0  0  0
   13.3278   -0.7649   22.4301 C   0  0  0  0  0  0  0  0  0  0  0  0
   14.4303   -1.8749   21.6711 Cl  0  0  0  0  0  0  0  0  0  0  0  0
   13.8103    0.4504   22.9007 C   0  0  0  0  0  0  0  0  0  0  0  0
   12.8953    1.3247   23.4376 C   0  0  0  0  0  0  0  0  0  0  0  0
   11.5393    0.9973   23.4656 C   0  0  0  0  0  0  0  0  0  0  0  0
   10.6350    2.0040   24.0901 C   0  0  0  0  0  0  0  0  0  0  0  0
   10.9984    3.1541   24.3027 O   0  0  0  0  0  0  0  0  0  0  0  0
    7.3990    4.4092   21.2964 H   0  0  0  0  0  0  0  0  0  0  0  0
    7.6039    5.6886   22.5288 H   0  0  0  0  0  0  0  0  0  0  0  0
    6.2425    4.5641   22.6565 H   0  0  0  0  0  0  0  0  0  0  0  0
    8.5959    2.9988   22.6066 H   0  0  0  0  0  0  0  0  0  0  0  0
    9.1660    2.9319   25.9871 H   0  0  0  0  0  0  0  0  0  0  0  0
    7.7906    1.8655   25.7171 H   0  0  0  0  0  0  0  0  0  0  0  0
    7.8539    0.2078   24.1802 H   0  0  0  0  0  0  0  0  0  0  0  0
    9.2672   -0.4050   25.0568 H   0  0  0  0  0  0  0  0  0  0  0  0
    8.0633   -0.8107   18.5422 H   0  0  0  0  0  0  0  0  0  0  0  0
    4.6885    1.1521   17.1945 H   0  0  0  0  0  0  0  0  0  0  0  0
    3.3306    2.5567   18.6780 H   0  0  0  0  0  0  0  0  0  0  0  0
    2.7701    3.3171   20.9654 H   0  0  0  0  0  0  0  0  0  0  0  0
    4.1232    2.5566   22.9015 H   0  0  0  0  0  0  0  0  0  0  0  0
    6.0737    1.1260   22.5750 H   0  0  0  0  0  0  0  0  0  0  0  0
    6.6890   -1.2662   22.6427 H   0  0  0  0  0  0  0  0  0  0  0  0
    7.1680   -2.2725   21.2597 H   0  0  0  0  0  0  0  0  0  0  0  0
    9.6131   -2.7566   24.4526 H   0  0  0  0  0  0  0  0  0  0  0  0
    8.3023   -3.6659   23.6726 H   0  0  0  0  0  0  0  0  0  0  0  0
    7.9412   -2.2019   24.6095 H   0  0  0  0  0  0  0  0  0  0  0  0
    8.9072   -3.4736   21.2091 H   0  0  0  0  0  0  0  0  0  0  0  0
   10.4128   -3.2465   22.0691 H   0  0  0  0  0  0  0  0  0  0  0  0
    9.9361   -2.0944   20.7852 H   0  0  0  0  0  0  0  0  0  0  0  0
   11.7768   -2.1314   22.2016 H   0  0  0  0  0  0  0  0  0  0  0  0
   14.8596    0.7103   22.8333 H   0  0  0  0  0  0  0  0  0  0  0  0
   13.1997    2.2909   23.8250 H   0  0  0  0  0  0  0  0  0  0  0  0
  1  2  1  0
  2  3  1  0
  3  4  2  0
  3  5  1  0
  5  6  1  0
  6  7  1  0
  8  7  1  1
  8  9  1  0
  9 10  2  0
  9 11  1  0
 11 12  1  0
 12 13  2  0
 13 14  1  0
 14 15  2  0
 15 16  1  0
 16 17  2  0
 17 18  1  0
 18 19  2  0
 19 20  1  0
 20 21  2  0
 11 22  1  0
 22 23  1  0
 23 24  1  0
 23 25  1  0
  8 26  1  0
 26 27  2  0
 27 28  1  0
 28 29  1  0
 28 30  2  0
 30 31  1  0
 31 32  2  0
 32 33  1  0
 33 34  2  0
 33  6  1  0
 23  8  1  0
 32 26  1  0
 21 12  1  0
 21 16  1  0
  1 35  1  0
  1 36  1  0
  1 37  1  0
  2 38  1  0
  5 39  1  0
  5 40  1  0
  7 41  1  0
  7 42  1  0
 13 43  1  0
 15 44  1  0
 17 45  1  0
 18 46  1  0
 19 47  1  0
 20 48  1  0
 22 49  1  0
 22 50  1  0
 24 51  1  0
 24 52  1  0
 24 53  1  0
 25 54  1  0
 25 55  1  0
 25 56  1  0
 27 57  1  0
 30 58  1  0
 31 59  1  0
M  END
$$$$
