
     RDKit          3D

 57 62  0  0  0  0  0  0  0  0999 V2000
    8.9223   -2.7356   23.6998 C   0  0  0  0  0  0  0  0  0  0  0  0
    8.9918   -1.7653   22.5230 C   0  0  1  0  0  0  0  0  0  0  0  0
    7.6506   -1.5533   21.7938 C   0  0  0  0  0  0  0  0  0  0  0  0
    7.8741   -0.2884   21.1084 N   0  0  0  0  0  0  0  0  0  0  0  0
    7.0170    0.2146   20.0871 C   0  0  0  0  0  0  0  0  0  0  0  0
    7.2349   -0.1412   18.7794 C   0  0  0  0  0  0  0  0  0  0  0  0
    6.4421    0.2154   17.7377 N   0  0  0  0  0  0  0  0  0  0  0  0
    5.4090    0.9809   17.9897 C   0  0  0  0  0  0  0  0  0  0  0  0
    5.0572    1.4246   19.3000 C   0  0  0  0  0  0  0  0  0  0  0  0
    3.9439    2.2753   19.5339 C   0  0  0  0  0  0  0  0  0  0  0  0
    3.6116    2.6588   20.8032 C   0  0  0  0  0  0  0  0  0  0  0  0
    4.3769    2.2059   21.9038 C   0  0  0  0  0  0  0  0  0  0  0  0
    5.4870    1.4217   21.7009 C   0  0  0  0  0  0  0  0  0  0  0  0
    5.8665    1.0195   20.3904 C   0  0  0  0  0  0  0  0  0  0  0  0
    8.8596    0.4815   21.6977 C   0  0  0  0  0  0  0  0  0  0  0  0
    9.1275    1.6206   21.3829 O   0  0  0  0  0  0  0  0  0  0  0  0
    9.5074   -0.3353   22.8509 C   0  0  1  0  0  0  0  0  0  0  0  0
    8.9698    0.1888   24.1987 C   0  0  0  0  0  0  0  0  0  0  0  0
    9.4100    1.5455   24.4600 N   0  0  0  0  0  0  0  0  0  0  0  0
    8.5341    2.4122   25.2181 C   0  0  0  0  0  0  0  0  0  0  0  0
    7.6440    3.2967   24.3884 C   0  0  0  0  0  0  0  0  0  0  0  0
    6.3607    3.6737   24.6302 C   0  0  0  0  0  0  0  0  0  0  0  0
    6.0008    4.5738   23.6469 N   0  0  0  0  0  0  0  0  0  0  0  0
    7.0406    4.7238   22.8138 C   0  0  0  0  0  0  0  0  0  0  0  0
    8.0542    3.9592   23.2456 N   0  0  0  0  0  0  0  0  0  0  0  0
   10.6436    2.0161   24.1208 C   0  0  0  0  0  0  0  0  0  0  0  0
   10.9798    3.1796   24.3343 O   0  0  0  0  0  0  0  0  0  0  0  0
   11.5447    1.0245   23.4547 C   0  0  0  0  0  0  0  0  0  0  0  0
   12.9075    1.3101   23.3880 C   0  0  0  0  0  0  0  0  0  0  0  0
   13.7805    0.4252   22.7845 C   0  0  0  0  0  0  0  0  0  0  0  0
   13.2491   -0.7546   22.2731 C   0  0  0  0  0  0  0  0  0  0  0  0
   14.0524   -1.5758   21.5721 F   0  0  0  0  0  0  0  0  0  0  0  0
   11.9087   -1.0759   22.3661 C   0  0  0  0  0  0  0  0  0  0  0  0
   11.0147   -0.1568   22.9134 C   0  0  0  0  0  0  0  0  0  0  0  0
    9.8855   -2.7828   24.2204 H   0  0  0  0  0  0  0  0  0  0  0  0
    8.1689   -2.4103   24.4297 H   0  0  0  0  0  0  0  0  0  0  0  0
    8.6615   -3.7482   23.3706 H   0  0  0  0  0  0  0  0  0  0  0  0
    9.6820   -2.1524   21.7669 H   0  0  0  0  0  0  0  0  0  0  0  0
    6.8127   -1.5024   22.5129 H   0  0  0  0  0  0  0  0  0  0  0  0
    7.3996   -2.3410   21.0734 H   0  0  0  0  0  0  0  0  0  0  0  0
    8.1070   -0.7384   18.5201 H   0  0  0  0  0  0  0  0  0  0  0  0
    4.8523    1.3460   17.1262 H   0  0  0  0  0  0  0  0  0  0  0  0
    3.3824    2.6198   18.6695 H   0  0  0  0  0  0  0  0  0  0  0  0
    2.7618    3.3174   20.9674 H   0  0  0  0  0  0  0  0  0  0  0  0
    4.0927    2.4920   22.9129 H   0  0  0  0  0  0  0  0  0  0  0  0
    6.0907    1.0852   22.5387 H   0  0  0  0  0  0  0  0  0  0  0  0
    7.8767    0.2004   24.1794 H   0  0  0  0  0  0  0  0  0  0  0  0
    9.3089   -0.4855   24.9973 H   0  0  0  0  0  0  0  0  0  0  0  0
    7.8867    1.7885   25.8433 H   0  0  0  0  0  0  0  0  0  0  0  0
    9.1793    3.0073   25.8765 H   0  0  0  0  0  0  0  0  0  0  0  0
    5.6590    3.3758   25.4001 H   0  0  0  0  0  0  0  0  0  0  0  0
    5.0833    5.0060   23.5575 H   0  0  0  0  0  0  0  0  0  0  0  0
    7.0422    5.3500   21.9413 H   0  0  0  0  0  0  0  0  0  0  0  0
    8.9677    3.8445   22.8023 H   0  0  0  0  0  0  0  0  0  0  0  0
   13.2370    2.2480   23.8216 H   0  0  0  0  0  0  0  0  0  0  0  0
   14.8318    0.6523   22.6346 H   0  0  0  0  0  0  0  0  0  0  0  0
   11.5585   -1.9766   21.8742 H   0  0  0  0  0  0  0  0  0  0  0  0
  1  2  1  0
  2  3  1  0
  3  4  1  0
  4  5  1  0
  5  6  2  0
  6  7  1  0
  7  8  2  0
  8  9  1  0
  9 10  2  0
 10 11  1  0
 11 12  2  0
 12 13  1  0
 13 14  2  0
  4 15  1  0
 15 16  2  0
 15 17  1  0
 17 18  1  1
 18 19  1  0
 19 20  1  0
 20 21  1  0
 21 22  2  0
 22 23  1  0
 23 24  2  0
 24 25  1  0
 19 26  1  0
 26 27  2  0
 26 28  1  0
 28 29  2  0
 29 30  1  0
 30 31  2  0
 31 32  1  0
 31 33  1  0
 33 34  2  0
 17  2  1  0
 25 21  1  0
 34 28  1  0
 14  5  1  0
 34 17  1  0
 14  9  1  0
  1 35  1  0
  1 36  1  0
  1 37  1  0
  2 38  1  6
  3 39  1  0
  3 40  1  0
  6 41  1  0
  8 42  1  0
 10 43  1  0
 11 44  1  0
 12 45  1  0
 13 46  1  0
 18 47  1  0
 18 48  1  0
 20 49  1  0
 20 50  1  0
 22 51  1  0
 23 52  1  0
 24 53  1  0
 25 54  1  0
 29 55  1  0
 30 56  1  0
 33 57  1  0
M  CHG  1  23   1
M  END
$$$$
