
     RDKit          3D

 67 72  0  0  0  0  0  0  0  0999 V2000
    8.5334   -1.4101   23.8976 C   0  0  0  0  0  0  0  0  0  0  0  0
    8.5027   -0.8304   22.4859 C   0  0  1  0  0  0  0  0  0  0  0  0
    7.2250   -1.2434   21.7245 C   0  0  0  0  0  0  0  0  0  0  0  0
    6.9819   -0.1245   20.8413 N   0  0  0  0  0  0  0  0  0  0  0  0
    5.9446   -0.0773   19.8766 C   0  0  0  0  0  0  0  0  0  0  0  0
    6.0795   -0.7672   18.6994 C   0  0  0  0  0  0  0  0  0  0  0  0
    5.2362   -0.6653   17.6445 N   0  0  0  0  0  0  0  0  0  0  0  0
    4.1866    0.1102   17.7895 C   0  0  0  0  0  0  0  0  0  0  0  0
    3.8650    0.7999   18.9933 C   0  0  0  0  0  0  0  0  0  0  0  0
    2.6772    1.5706   19.1185 C   0  0  0  0  0  0  0  0  0  0  0  0
    2.3422    2.1486   20.3117 C   0  0  0  0  0  0  0  0  0  0  0  0
    3.2000    2.0169   21.4253 C   0  0  0  0  0  0  0  0  0  0  0  0
    4.3829    1.3241   21.3147 C   0  0  0  0  0  0  0  0  0  0  0  0
    4.7525    0.6917   20.0905 C   0  0  0  0  0  0  0  0  0  0  0  0
    7.7508    0.9869   21.1056 C   0  0  0  0  0  0  0  0  0  0  0  0
    7.6962    2.0081   20.4496 O   0  0  0  0  0  0  0  0  0  0  0  0
    8.5911    0.7262   22.3778 C   0  0  1  0  0  0  0  0  0  0  0  0
    7.8622    1.4343   23.5595 C   0  0  0  0  0  0  0  0  0  0  0  0
    7.8986    2.8795   23.4225 N   0  0  0  0  0  0  0  0  0  0  0  0
    6.7686    3.7428   23.7313 C   0  0  0  0  0  0  0  0  0  0  0  0
    6.3204    4.4999   22.4778 C   0  0  0  0  0  0  0  0  0  0  0  0
    5.0929    5.2397   22.7093 N   0  0  0  0  0  0  0  0  0  0  0  0
    5.3169    6.4839   23.4442 C   0  0  0  0  0  0  0  0  0  0  0  0
    4.0159    7.0010   24.0475 C   0  0  0  0  0  0  0  0  0  0  0  0
    2.8122    7.3236   22.7544 S   0  0  0  0  0  0  0  0  0  0  0  0
    3.3346    8.4337   21.9602 O   0  0  0  0  0  0  0  0  0  0  0  0
    1.4862    7.3990   23.3547 O   0  0  0  0  0  0  0  0  0  0  0  0
    2.9174    5.8408   21.7463 C   0  0  0  0  0  0  0  0  0  0  0  0
    4.3693    5.4753   21.4655 C   0  0  0  0  0  0  0  0  0  0  0  0
    9.0519    3.5379   23.1096 C   0  0  0  0  0  0  0  0  0  0  0  0
    9.1907    4.7388   23.3168 O   0  0  0  0  0  0  0  0  0  0  0  0
   10.1421    2.7258   22.4850 C   0  0  0  0  0  0  0  0  0  0  0  0
   11.3309    3.3939   22.1765 C   0  0  0  0  0  0  0  0  0  0  0  0
   12.4692    2.6644   21.8866 C   0  0  0  0  0  0  0  0  0  0  0  0
   12.3715    1.2677   21.8983 C   0  0  0  0  0  0  0  0  0  0  0  0
   13.8201    0.3312   21.6774 Cl  0  0  0  0  0  0  0  0  0  0  0  0
   11.1660    0.6006   22.0743 C   0  0  0  0  0  0  0  0  0  0  0  0
    9.9924    1.3389   22.2946 C   0  0  0  0  0  0  0  0  0  0  0  0
    7.6565   -1.0809   24.4684 H   0  0  0  0  0  0  0  0  0  0  0  0
    8.5162   -2.5060   23.8768 H   0  0  0  0  0  0  0  0  0  0  0  0
    9.4276   -1.0913   24.4414 H   0  0  0  0  0  0  0  0  0  0  0  0
    9.3394   -1.2407   21.9141 H   0  0  0  0  0  0  0  0  0  0  0  0
    6.3804   -1.4023   22.4109 H   0  0  0  0  0  0  0  0  0  0  0  0
    7.3490   -2.1706   21.1509 H   0  0  0  0  0  0  0  0  0  0  0  0
    6.9378   -1.4220   18.5572 H   0  0  0  0  0  0  0  0  0  0  0  0
    3.5102    0.1986   16.9378 H   0  0  0  0  0  0  0  0  0  0  0  0
    2.0459    1.6937   18.2455 H   0  0  0  0  0  0  0  0  0  0  0  0
    1.4146    2.7095   20.4055 H   0  0  0  0  0  0  0  0  0  0  0  0
    2.9279    2.4848   22.3689 H   0  0  0  0  0  0  0  0  0  0  0  0
    5.0325    1.2432   22.1796 H   0  0  0  0  0  0  0  0  0  0  0  0
    8.3446    1.1367   24.4980 H   0  0  0  0  0  0  0  0  0  0  0  0
    6.8197    1.1023   23.6075 H   0  0  0  0  0  0  0  0  0  0  0  0
    7.0867    4.4485   24.5073 H   0  0  0  0  0  0  0  0  0  0  0  0
    5.9424    3.1440   24.1268 H   0  0  0  0  0  0  0  0  0  0  0  0
    7.1339    5.1626   22.1385 H   0  0  0  0  0  0  0  0  0  0  0  0
    6.1677    3.7612   21.6798 H   0  0  0  0  0  0  0  0  0  0  0  0
    6.0101    6.2974   24.2716 H   0  0  0  0  0  0  0  0  0  0  0  0
    5.7792    7.2596   22.8064 H   0  0  0  0  0  0  0  0  0  0  0  0
    4.1617    7.9554   24.5630 H   0  0  0  0  0  0  0  0  0  0  0  0
    3.5852    6.2774   24.7454 H   0  0  0  0  0  0  0  0  0  0  0  0
    2.4146    5.0303   22.2838 H   0  0  0  0  0  0  0  0  0  0  0  0
    2.3720    6.0597   20.8228 H   0  0  0  0  0  0  0  0  0  0  0  0
    4.8535    6.2542   20.8466 H   0  0  0  0  0  0  0  0  0  0  0  0
    4.3705    4.5478   20.8800 H   0  0  0  0  0  0  0  0  0  0  0  0
   11.3410    4.4834   22.2110 H   0  0  0  0  0  0  0  0  0  0  0  0
   13.4218    3.1509   21.6827 H   0  0  0  0  0  0  0  0  0  0  0  0
   11.1670   -0.4862   22.0242 H   0  0  0  0  0  0  0  0  0  0  0  0
  1  2  1  0
  2  3  1  0
  3  4  1  0
  4  5  1  0
  5  6  2  0
  6  7  1  0
  7  8  2  0
  8  9  1  0
  9 10  2  0
 10 11  1  0
 11 12  2  0
 12 13  1  0
 13 14  2  0
  4 15  1  0
 15 16  2  0
 15 17  1  0
 17 18  1  1
 18 19  1  0
 19 20  1  0
 20 21  1  0
 21 22  1  0
 22 23  1  0
 23 24  1  0
 24 25  1  0
 25 26  2  0
 25 27  2  0
 25 28  1  0
 28 29  1  0
 19 30  1  0
 30 31  2  0
 30 32  1  0
 32 33  2  0
 33 34  1  0
 34 35  2  0
 35 36  1  0
 35 37  1  0
 37 38  2  0
 17  2  1  0
 29 22  1  0
 38 32  1  0
 14  5  1  0
 38 17  1  0
 14  9  1  0
  1 39  1  0
  1 40  1  0
  1 41  1  0
  2 42  1  6
  3 43  1  0
  3 44  1  0
  6 45  1  0
  8 46  1  0
 10 47  1  0
 11 48  1  0
 12 49  1  0
 13 50  1  0
 18 51  1  0
 18 52  1  0
 20 53  1  0
 20 54  1  0
 21 55  1  0
 21 56  1  0
 23 57  1  0
 23 58  1  0
 24 59  1  0
 24 60  1  0
 28 61  1  0
 28 62  1  0
 29 63  1  0
 29 64  1  0
 33 65  1  0
 34 66  1  0
 37 67  1  0
M  END
$$$$
