
     RDKit          3D

 66 71  0  0  0  0  0  0  0  0999 V2000
   -7.0173    3.6302  -22.4781 C   0  0  0  0  0  0  0  0  0  0  0  0
   -7.7707    2.6688  -23.2579 N   0  0  0  0  0  0  0  0  0  0  0  0
   -7.4867    2.5193  -24.5718 C   0  0  0  0  0  0  0  0  0  0  0  0
   -6.7235    3.2506  -25.1866 O   0  0  0  0  0  0  0  0  0  0  0  0
   -8.1583    1.3625  -25.3223 C   0  0  0  0  0  0  0  0  0  0  0  0
   -8.9830    0.4679  -24.5507 N   0  0  0  0  0  0  0  0  0  0  0  0
   -8.5106   -0.8802  -24.2785 C   0  0  0  0  0  0  0  0  0  0  0  0
   -9.0730   -1.4223  -22.9386 C   0  0  2  0  0  0  0  0  0  0  0  0
   -8.4725   -0.5761  -21.7846 C   0  0  0  0  0  0  0  0  0  0  0  0
   -8.7607    0.5752  -21.5081 O   0  0  0  0  0  0  0  0  0  0  0  0
   -7.5081   -1.3105  -21.1412 N   0  0  0  0  0  0  0  0  0  0  0  0
   -6.6613   -0.7882  -20.1214 C   0  0  0  0  0  0  0  0  0  0  0  0
   -6.8861   -1.1486  -18.8156 C   0  0  0  0  0  0  0  0  0  0  0  0
   -6.1172   -0.7657  -17.7671 N   0  0  0  0  0  0  0  0  0  0  0  0
   -5.0888    0.0079  -18.0163 C   0  0  0  0  0  0  0  0  0  0  0  0
   -4.7445    0.4706  -19.3182 C   0  0  0  0  0  0  0  0  0  0  0  0
   -3.6584    1.3626  -19.5273 C   0  0  0  0  0  0  0  0  0  0  0  0
   -3.3280    1.7602  -20.7920 C   0  0  0  0  0  0  0  0  0  0  0  0
   -4.0580    1.2857  -21.9049 C   0  0  0  0  0  0  0  0  0  0  0  0
   -5.1382    0.4563  -21.7245 C   0  0  0  0  0  0  0  0  0  0  0  0
   -5.5291    0.0432  -20.4177 C   0  0  0  0  0  0  0  0  0  0  0  0
   -7.2208   -2.5585  -21.8191 C   0  0  0  0  0  0  0  0  0  0  0  0
   -8.5262   -2.8310  -22.5766 C   0  0  2  0  0  0  0  0  0  0  0  0
   -8.3841   -3.8571  -23.7163 C   0  0  0  0  0  0  0  0  0  0  0  0
   -9.7299   -4.2945  -24.2678 C   0  0  0  0  0  0  0  0  0  0  0  0
  -10.5782   -5.0567  -23.4638 C   0  0  0  0  0  0  0  0  0  0  0  0
  -11.8781   -5.3428  -23.8548 C   0  0  0  0  0  0  0  0  0  0  0  0
  -12.2953   -5.0583  -25.1488 C   0  0  0  0  0  0  0  0  0  0  0  0
  -11.4423   -4.3602  -25.9904 C   0  0  0  0  0  0  0  0  0  0  0  0
  -10.1938   -3.9387  -25.5365 C   0  0  0  0  0  0  0  0  0  0  0  0
  -10.5818   -1.2883  -23.0411 C   0  0  0  0  0  0  0  0  0  0  0  0
  -11.4721   -2.2227  -22.5187 C   0  0  0  0  0  0  0  0  0  0  0  0
  -12.8285   -1.9640  -22.5018 C   0  0  0  0  0  0  0  0  0  0  0  0
  -13.8626   -3.1446  -21.7397 Cl  0  0  0  0  0  0  0  0  0  0  0  0
  -13.3715   -0.7942  -23.0291 C   0  0  0  0  0  0  0  0  0  0  0  0
  -12.5034    0.1157  -23.5925 C   0  0  0  0  0  0  0  0  0  0  0  0
  -11.1341   -0.1385  -23.6197 C   0  0  0  0  0  0  0  0  0  0  0  0
  -10.2528    0.8820  -24.2605 C   0  0  0  0  0  0  0  0  0  0  0  0
  -10.6393    2.0208  -24.4966 O   0  0  0  0  0  0  0  0  0  0  0  0
   -5.9611    3.5565  -22.7411 H   0  0  0  0  0  0  0  0  0  0  0  0
   -7.1458    3.3856  -21.4186 H   0  0  0  0  0  0  0  0  0  0  0  0
   -7.3300    4.6640  -22.6536 H   0  0  0  0  0  0  0  0  0  0  0  0
   -8.3190    1.9849  -22.7444 H   0  0  0  0  0  0  0  0  0  0  0  0
   -7.3504    0.7901  -25.7868 H   0  0  0  0  0  0  0  0  0  0  0  0
   -8.7446    1.8014  -26.1360 H   0  0  0  0  0  0  0  0  0  0  0  0
   -8.8151   -1.5543  -25.0883 H   0  0  0  0  0  0  0  0  0  0  0  0
   -7.4172   -0.8628  -24.2362 H   0  0  0  0  0  0  0  0  0  0  0  0
   -7.7384   -1.7816  -18.5709 H   0  0  0  0  0  0  0  0  0  0  0  0
   -4.4818    0.3346  -17.1706 H   0  0  0  0  0  0  0  0  0  0  0  0
   -3.1038    1.7205  -18.6627 H   0  0  0  0  0  0  0  0  0  0  0  0
   -2.5015    2.4442  -20.9535 H   0  0  0  0  0  0  0  0  0  0  0  0
   -3.7862    1.6099  -22.9074 H   0  0  0  0  0  0  0  0  0  0  0  0
   -5.7042    0.1200  -22.5889 H   0  0  0  0  0  0  0  0  0  0  0  0
   -6.9895   -3.3307  -21.0828 H   0  0  0  0  0  0  0  0  0  0  0  0
   -6.3706   -2.4729  -22.5204 H   0  0  0  0  0  0  0  0  0  0  0  0
   -9.2156   -3.2450  -21.8331 H   0  0  0  0  0  0  0  0  0  0  0  0
   -7.7521   -3.4422  -24.5122 H   0  0  0  0  0  0  0  0  0  0  0  0
   -7.8639   -4.7457  -23.3301 H   0  0  0  0  0  0  0  0  0  0  0  0
  -10.2484   -5.3539  -22.4715 H   0  0  0  0  0  0  0  0  0  0  0  0
  -12.5620   -5.7649  -23.1366 H   0  0  0  0  0  0  0  0  0  0  0  0
  -13.2674   -5.3824  -25.5046 H   0  0  0  0  0  0  0  0  0  0  0  0
  -11.7541   -4.1323  -27.0090 H   0  0  0  0  0  0  0  0  0  0  0  0
   -9.5825   -3.3269  -26.1976 H   0  0  0  0  0  0  0  0  0  0  0  0
  -11.1372   -3.1455  -22.0731 H   0  0  0  0  0  0  0  0  0  0  0  0
  -14.4389   -0.6076  -22.9740 H   0  0  0  0  0  0  0  0  0  0  0  0
  -12.8651    1.0482  -24.0114 H   0  0  0  0  0  0  0  0  0  0  0  0
  1  2  1  0
  2  3  1  0
  3  4  2  0
  3  5  1  0
  5  6  1  0
  6  7  1  0
  8  7  1  6
  8  9  1  0
  9 10  2  0
  9 11  1  0
 11 12  1  0
 12 13  2  0
 13 14  1  0
 14 15  2  0
 15 16  1  0
 16 17  2  0
 17 18  1  0
 18 19  2  0
 19 20  1  0
 20 21  2  0
 11 22  1  0
 22 23  1  0
 23 24  1  0
 24 25  1  0
 25 26  2  0
 26 27  1  0
 27 28  2  0
 28 29  1  0
 29 30  2  0
  8 31  1  0
 31 32  2  0
 32 33  1  0
 33 34  1  0
 33 35  2  0
 35 36  1  0
 36 37  2  0
 37 38  1  0
 38 39  2  0
 38  6  1  0
 23  8  1  0
 30 25  1  0
 37 31  1  0
 21 12  1  0
 21 16  1  0
  1 40  1  0
  1 41  1  0
  1 42  1  0
  2 43  1  0
  5 44  1  0
  5 45  1  0
  7 46  1  0
  7 47  1  0
 13 48  1  0
 15 49  1  0
 17 50  1  0
 18 51  1  0
 19 52  1  0
 20 53  1  0
 22 54  1  0
 22 55  1  0
 23 56  1  1
 24 57  1  0
 24 58  1  0
 26 59  1  0
 27 60  1  0
 28 61  1  0
 29 62  1  0
 30 63  1  0
 32 64  1  0
 35 65  1  0
 36 66  1  0
M  END
