
     RDKit          3D

 60 65  0  0  0  0  0  0  0  0999 V2000
  -10.3168   -5.1723  -23.9623 C   0  0  0  0  0  0  0  0  0  0  0  0
   -9.5875   -4.0497  -24.3878 O   0  0  0  0  0  0  0  0  0  0  0  0
   -8.3636   -3.8437  -23.7130 C   0  0  0  0  0  0  0  0  0  0  0  0
   -8.5174   -2.8520  -22.5626 C   0  0  1  0  0  0  0  0  0  0  0  0
   -7.2138   -2.5959  -21.8005 C   0  0  0  0  0  0  0  0  0  0  0  0
   -7.4957   -1.3448  -21.1250 N   0  0  0  0  0  0  0  0  0  0  0  0
   -6.6418   -0.8262  -20.1117 C   0  0  0  0  0  0  0  0  0  0  0  0
   -6.8635   -1.1813  -18.8019 C   0  0  0  0  0  0  0  0  0  0  0  0
   -6.0821   -0.8069  -17.7615 N   0  0  0  0  0  0  0  0  0  0  0  0
   -5.0564   -0.0355  -18.0228 C   0  0  0  0  0  0  0  0  0  0  0  0
   -4.7285    0.4353  -19.3260 C   0  0  0  0  0  0  0  0  0  0  0  0
   -3.6564    1.3428  -19.5338 C   0  0  0  0  0  0  0  0  0  0  0  0
   -3.3476    1.7674  -20.7957 C   0  0  0  0  0  0  0  0  0  0  0  0
   -4.0779    1.2944  -21.9084 C   0  0  0  0  0  0  0  0  0  0  0  0
   -5.1401    0.4381  -21.7272 C   0  0  0  0  0  0  0  0  0  0  0  0
   -5.5139    0.0054  -20.4201 C   0  0  0  0  0  0  0  0  0  0  0  0
   -8.4415   -0.5861  -21.7819 C   0  0  0  0  0  0  0  0  0  0  0  0
   -8.6979    0.5662  -21.5060 O   0  0  0  0  0  0  0  0  0  0  0  0
   -9.0546   -1.4394  -22.9309 C   0  0  1  0  0  0  0  0  0  0  0  0
   -8.5072   -0.9114  -24.2835 C   0  0  0  0  0  0  0  0  0  0  0  0
   -8.9669    0.4417  -24.5651 N   0  0  0  0  0  0  0  0  0  0  0  0
   -8.1446    1.3519  -25.3466 C   0  0  0  0  0  0  0  0  0  0  0  0
   -7.7960    2.6481  -24.6411 C   0  0  0  0  0  0  0  0  0  0  0  0
   -7.8488    3.9644  -25.1632 C   0  0  0  0  0  0  0  0  0  0  0  0
   -7.4842    4.8777  -24.2692 N   0  0  0  0  0  0  0  0  0  0  0  0
   -7.2067    4.1688  -23.1710 N   0  0  0  0  0  0  0  0  0  0  0  0
   -7.3944    2.8382  -23.3341 C   0  0  0  0  0  0  0  0  0  0  0  0
  -10.2245    0.8694  -24.2372 C   0  0  0  0  0  0  0  0  0  0  0  0
  -10.6165    2.0066  -24.4579 O   0  0  0  0  0  0  0  0  0  0  0  0
  -11.1061   -0.1580  -23.6008 C   0  0  0  0  0  0  0  0  0  0  0  0
  -12.4764    0.0944  -23.5802 C   0  0  0  0  0  0  0  0  0  0  0  0
  -13.3487   -0.8361  -23.0545 C   0  0  0  0  0  0  0  0  0  0  0  0
  -12.8188   -2.0261  -22.5595 C   0  0  0  0  0  0  0  0  0  0  0  0
  -13.8879   -3.1973  -21.8340 Cl  0  0  0  0  0  0  0  0  0  0  0  0
  -11.4613   -2.2948  -22.5750 C   0  0  0  0  0  0  0  0  0  0  0  0
  -10.5660   -1.3213  -23.0353 C   0  0  0  0  0  0  0  0  0  0  0  0
  -10.5139   -5.1710  -22.8813 H   0  0  0  0  0  0  0  0  0  0  0  0
   -9.8009   -6.1091  -24.2161 H   0  0  0  0  0  0  0  0  0  0  0  0
  -11.2740   -5.1458  -24.4868 H   0  0  0  0  0  0  0  0  0  0  0  0
   -7.9335   -4.7957  -23.3578 H   0  0  0  0  0  0  0  0  0  0  0  0
   -7.6637   -3.4262  -24.4486 H   0  0  0  0  0  0  0  0  0  0  0  0
   -9.2219   -3.2544  -21.8282 H   0  0  0  0  0  0  0  0  0  0  0  0
   -6.9793   -3.3680  -21.0628 H   0  0  0  0  0  0  0  0  0  0  0  0
   -6.3542   -2.5048  -22.4891 H   0  0  0  0  0  0  0  0  0  0  0  0
   -7.7247   -1.8001  -18.5541 H   0  0  0  0  0  0  0  0  0  0  0  0
   -4.4300    0.2720  -17.1863 H   0  0  0  0  0  0  0  0  0  0  0  0
   -3.1068    1.6970  -18.6652 H   0  0  0  0  0  0  0  0  0  0  0  0
   -2.5352    2.4700  -20.9491 H   0  0  0  0  0  0  0  0  0  0  0  0
   -3.8009    1.6144  -22.9093 H   0  0  0  0  0  0  0  0  0  0  0  0
   -5.7048    0.1044  -22.5928 H   0  0  0  0  0  0  0  0  0  0  0  0
   -7.4136   -0.9050  -24.2507 H   0  0  0  0  0  0  0  0  0  0  0  0
   -8.8296   -1.6106  -25.0682 H   0  0  0  0  0  0  0  0  0  0  0  0
   -7.2446    0.7917  -25.6226 H   0  0  0  0  0  0  0  0  0  0  0  0
   -8.6535    1.5892  -26.2897 H   0  0  0  0  0  0  0  0  0  0  0  0
   -8.1747    4.2927  -26.1459 H   0  0  0  0  0  0  0  0  0  0  0  0
   -6.9071    4.6512  -22.3329 H   0  0  0  0  0  0  0  0  0  0  0  0
   -7.3057    2.1685  -22.4902 H   0  0  0  0  0  0  0  0  0  0  0  0
  -12.8239    1.0433  -23.9727 H   0  0  0  0  0  0  0  0  0  0  0  0
  -14.4170   -0.6538  -23.0114 H   0  0  0  0  0  0  0  0  0  0  0  0
  -11.1387   -3.2642  -22.2150 H   0  0  0  0  0  0  0  0  0  0  0  0
  1  2  1  0
  2  3  1  0
  3  4  1  0
  4  5  1  0
  5  6  1  0
  6  7  1  0
  7  8  2  0
  8  9  1  0
  9 10  2  0
 10 11  1  0
 11 12  2  0
 12 13  1  0
 13 14  2  0
 14 15  1  0
 15 16  2  0
  6 17  1  0
 17 18  2  0
 17 19  1  0
 19 20  1  6
 20 21  1  0
 21 22  1  0
 22 23  1  0
 23 24  1  0
 24 25  2  0
 25 26  1  0
 26 27  1  0
 21 28  1  0
 28 29  2  0
 28 30  1  0
 30 31  2  0
 31 32  1  0
 32 33  2  0
 33 34  1  0
 33 35  1  0
 35 36  2  0
 19  4  1  0
 27 23  2  0
 36 30  1  0
 16  7  1  0
 36 19  1  0
 16 11  1  0
  1 37  1  0
  1 38  1  0
  1 39  1  0
  3 40  1  0
  3 41  1  0
  4 42  1  1
  5 43  1  0
  5 44  1  0
  8 45  1  0
 10 46  1  0
 12 47  1  0
 13 48  1  0
 14 49  1  0
 15 50  1  0
 20 51  1  0
 20 52  1  0
 22 53  1  0
 22 54  1  0
 24 55  1  0
 26 56  1  0
 27 57  1  0
 31 58  1  0
 32 59  1  0
 35 60  1  0
M  END
