
     RDKit          3D

 60 65  0  0  0  0  0  0  0  0999 V2000
   10.8643   -4.0305   23.9199 C   0  0  0  0  0  0  0  0  0  0  0  0
   10.1132   -2.9217   24.3439 O   0  0  0  0  0  0  0  0  0  0  0  0
    8.8696   -2.7607   23.6933 C   0  0  0  0  0  0  0  0  0  0  0  0
    8.9705   -1.7839   22.5244 C   0  0  1  0  0  0  0  0  0  0  0  0
    7.6439   -1.5764   21.7876 C   0  0  0  0  0  0  0  0  0  0  0  0
    7.8759   -0.3292   21.0865 N   0  0  0  0  0  0  0  0  0  0  0  0
    6.9859    0.1491   20.0844 C   0  0  0  0  0  0  0  0  0  0  0  0
    7.1889   -0.2210   18.7758 C   0  0  0  0  0  0  0  0  0  0  0  0
    6.3749    0.1147   17.7472 N   0  0  0  0  0  0  0  0  0  0  0  0
    5.3339    0.8615   18.0192 C   0  0  0  0  0  0  0  0  0  0  0  0
    5.0213    1.3442   19.3218 C   0  0  0  0  0  0  0  0  0  0  0  0
    3.9290    2.2249   19.5392 C   0  0  0  0  0  0  0  0  0  0  0  0
    3.6359    2.6612   20.8008 C   0  0  0  0  0  0  0  0  0  0  0  0
    4.4033    2.2268   21.9043 C   0  0  0  0  0  0  0  0  0  0  0  0
    5.4849    1.3974   21.7129 C   0  0  0  0  0  0  0  0  0  0  0  0
    5.8421    0.9540   20.4048 C   0  0  0  0  0  0  0  0  0  0  0  0
    8.8141    0.4660   21.7103 C   0  0  0  0  0  0  0  0  0  0  0  0
    9.0320    1.6203   21.4108 O   0  0  0  0  0  0  0  0  0  0  0  0
    9.4758   -0.3512   22.8586 C   0  0  1  0  0  0  0  0  0  0  0  0
    8.9433    0.1833   24.2146 C   0  0  0  0  0  0  0  0  0  0  0  0
    9.3709    1.5530   24.4647 N   0  0  0  0  0  0  0  0  0  0  0  0
    8.5406    2.4527   25.2500 C   0  0  0  0  0  0  0  0  0  0  0  0
    8.1405    3.7271   24.5322 C   0  0  0  0  0  0  0  0  0  0  0  0
    8.1678    5.0527   25.0324 C   0  0  0  0  0  0  0  0  0  0  0  0
    7.7583    5.9409   24.1326 N   0  0  0  0  0  0  0  0  0  0  0  0
    7.4770    5.2068   23.0520 N   0  0  0  0  0  0  0  0  0  0  0  0
    7.7054    3.8848   23.2317 C   0  0  0  0  0  0  0  0  0  0  0  0
   10.6086    2.0100   24.1023 C   0  0  0  0  0  0  0  0  0  0  0  0
   10.9733    3.1611   24.2965 O   0  0  0  0  0  0  0  0  0  0  0  0
   11.5046    0.9972   23.4627 C   0  0  0  0  0  0  0  0  0  0  0  0
   12.8665    1.2871   23.4077 C   0  0  0  0  0  0  0  0  0  0  0  0
   13.7529    0.3727   22.8773 C   0  0  0  0  0  0  0  0  0  0  0  0
   13.2459   -0.8394   22.4129 C   0  0  0  0  0  0  0  0  0  0  0  0
   14.3314   -1.9922   21.6822 Cl  0  0  0  0  0  0  0  0  0  0  0  0
   11.8972   -1.1453   22.4627 C   0  0  0  0  0  0  0  0  0  0  0  0
   10.9852   -0.1896   22.9275 C   0  0  0  0  0  0  0  0  0  0  0  0
   11.0377   -4.0413   22.8349 H   0  0  0  0  0  0  0  0  0  0  0  0
   10.3805   -4.9770   24.1997 H   0  0  0  0  0  0  0  0  0  0  0  0
   11.8316   -3.9690   24.4225 H   0  0  0  0  0  0  0  0  0  0  0  0
    8.4588   -3.7299   23.3627 H   0  0  0  0  0  0  0  0  0  0  0  0
    8.1745   -2.3508   24.4377 H   0  0  0  0  0  0  0  0  0  0  0  0
    9.6698   -2.1785   21.7809 H   0  0  0  0  0  0  0  0  0  0  0  0
    7.4152   -2.3666   21.0674 H   0  0  0  0  0  0  0  0  0  0  0  0
    6.7973   -1.4980   22.4936 H   0  0  0  0  0  0  0  0  0  0  0  0
    8.0615   -0.8196   18.5186 H   0  0  0  0  0  0  0  0  0  0  0  0
    4.6810    1.1379   17.1921 H   0  0  0  0  0  0  0  0  0  0  0  0
    3.3509    2.5496   18.6776 H   0  0  0  0  0  0  0  0  0  0  0  0
    2.8077    3.3435   20.9612 H   0  0  0  0  0  0  0  0  0  0  0  0
    4.1393    2.5552   22.9060 H   0  0  0  0  0  0  0  0  0  0  0  0
    6.0774    1.0935   22.5709 H   0  0  0  0  0  0  0  0  0  0  0  0
    7.8495    0.1589   24.2060 H   0  0  0  0  0  0  0  0  0  0  0  0
    9.3022   -0.4938   25.0028 H   0  0  0  0  0  0  0  0  0  0  0  0
    7.6629    1.8723   25.5546 H   0  0  0  0  0  0  0  0  0  0  0  0
    9.0631    2.7193   26.1777 H   0  0  0  0  0  0  0  0  0  0  0  0
    8.5056    5.4058   26.0024 H   0  0  0  0  0  0  0  0  0  0  0  0
    7.1458    5.6671   22.2133 H   0  0  0  0  0  0  0  0  0  0  0  0
    7.6172    3.1992   22.4005 H   0  0  0  0  0  0  0  0  0  0  0  0
   13.1957    2.2515   23.7775 H   0  0  0  0  0  0  0  0  0  0  0  0
   14.8145    0.5838   22.8077 H   0  0  0  0  0  0  0  0  0  0  0  0
   11.5941   -2.1290   22.1252 H   0  0  0  0  0  0  0  0  0  0  0  0
  1  2  1  0
  2  3  1  0
  3  4  1  0
  4  5  1  0
  5  6  1  0
  6  7  1  0
  7  8  2  0
  8  9  1  0
  9 10  2  0
 10 11  1  0
 11 12  2  0
 12 13  1  0
 13 14  2  0
 14 15  1  0
 15 16  2  0
  6 17  1  0
 17 18  2  0
 17 19  1  0
 19 20  1  1
 20 21  1  0
 21 22  1  0
 22 23  1  0
 23 24  1  0
 24 25  2  0
 25 26  1  0
 26 27  1  0
 21 28  1  0
 28 29  2  0
 28 30  1  0
 30 31  2  0
 31 32  1  0
 32 33  2  0
 33 34  1  0
 33 35  1  0
 35 36  2  0
 19  4  1  0
 27 23  2  0
 36 30  1  0
 16  7  1  0
 36 19  1  0
 16 11  1  0
  1 37  1  0
  1 38  1  0
  1 39  1  0
  3 40  1  0
  3 41  1  0
  4 42  1  6
  5 43  1  0
  5 44  1  0
  8 45  1  0
 10 46  1  0
 12 47  1  0
 13 48  1  0
 14 49  1  0
 15 50  1  0
 20 51  1  0
 20 52  1  0
 22 53  1  0
 22 54  1  0
 24 55  1  0
 26 56  1  0
 27 57  1  0
 31 58  1  0
 32 59  1  0
 35 60  1  0
M  END
$$$$
