
     RDKit          3D

 69 70  0  0  0  0  0  0  0  0999 V2000
    4.0580   -3.9177   28.1056 C   0  0  0  0  0  0  0  0  0  0  0  0
    3.9155   -2.5089   27.9164 O   0  0  0  0  0  0  0  0  0  0  0  0
    3.9557   -2.1309   26.6230 C   0  0  0  0  0  0  0  0  0  0  0  0
    4.0954   -2.9055   25.6990 O   0  0  0  0  0  0  0  0  0  0  0  0
    3.8038   -0.7617   26.5142 N   0  0  0  0  0  0  0  0  0  0  0  0
    4.1505   -0.2056   25.2100 C   0  0  2  0  0  0  0  0  0  0  0  0
    5.6568    0.1150   25.2723 C   0  0  0  0  0  0  0  0  0  0  0  0
    6.1324    0.7237   26.2213 O   0  0  0  0  0  0  0  0  0  0  0  0
    6.4583   -0.3203   24.2553 N   0  0  0  0  0  0  0  0  0  0  0  0
    6.0444   -1.1124   23.1077 C   0  0  0  0  0  0  0  0  0  0  0  0
    7.2139   -0.9513   22.1373 C   0  0  2  0  0  0  0  0  0  0  0  0
    7.3444   -2.0907   21.1678 C   0  0  0  0  0  0  0  0  0  0  0  0
    7.5043   -3.2788   21.7922 F   0  0  0  0  0  0  0  0  0  0  0  0
    6.2478   -2.1910   20.3913 F   0  0  0  0  0  0  0  0  0  0  0  0
    8.4022   -1.8935   20.3579 F   0  0  0  0  0  0  0  0  0  0  0  0
    8.4369   -0.7311   23.0364 C   0  0  0  0  0  0  0  0  0  0  0  0
    7.8727    0.0712   24.2410 C   0  0  1  0  0  0  0  0  0  0  0  0
    8.0124    1.5871   24.0865 C   0  0  0  0  0  0  0  0  0  0  0  0
    8.8732    2.2517   24.6654 O   0  0  0  0  0  0  0  0  0  0  0  0
    7.1726    2.1166   23.1737 N   0  0  0  0  0  0  0  0  0  0  0  0
    7.0527    3.5306   22.8493 C   0  0  2  0  0  0  0  0  0  0  0  0
    8.1802    3.9038   21.8709 C   0  0  0  0  0  0  0  0  0  0  0  0
    9.5288    3.4057   22.3077 N   0  0  0  0  0  0  0  0  0  0  0  0
    6.9645    4.4252   24.1055 C   0  0  0  0  0  0  0  0  0  0  0  0
    6.0589    5.6552   23.9606 C   0  0  2  0  0  0  0  0  0  0  0  0
    4.6023    5.3517   23.5525 C   0  0  0  0  0  0  0  0  0  0  0  0
    4.4004    5.9856   22.1549 C   0  0  0  0  0  0  0  0  0  0  0  0
    5.6032    6.7720   21.9589 N   0  0  0  0  0  0  0  0  0  0  0  0
    6.5808    6.6117   22.8921 C   0  0  0  0  0  0  0  0  0  0  0  0
    7.6767    7.1421   22.8859 O   0  0  0  0  0  0  0  0  0  0  0  0
    3.2642    1.0157   24.8015 C   0  0  0  0  0  0  0  0  0  0  0  0
    1.7929    0.6060   24.9694 C   0  0  0  0  0  0  0  0  0  0  0  0
    3.5662    2.2396   25.6773 C   0  0  0  0  0  0  0  0  0  0  0  0
    3.4833    1.3880   23.3227 C   0  0  0  0  0  0  0  0  0  0  0  0
    5.0708   -4.2351   27.8453 H   0  0  0  0  0  0  0  0  0  0  0  0
    3.3433   -4.4608   27.4854 H   0  0  0  0  0  0  0  0  0  0  0  0
    3.8589   -4.0988   29.1610 H   0  0  0  0  0  0  0  0  0  0  0  0
    4.2402   -0.2763   27.2865 H   0  0  0  0  0  0  0  0  0  0  0  0
    3.9452   -1.0041   24.4951 H   0  0  0  0  0  0  0  0  0  0  0  0
    5.1241   -0.7198   22.6650 H   0  0  0  0  0  0  0  0  0  0  0  0
    5.8738   -2.1573   23.3924 H   0  0  0  0  0  0  0  0  0  0  0  0
    7.0443   -0.0581   21.5266 H   0  0  0  0  0  0  0  0  0  0  0  0
    8.8298   -1.6850   23.4084 H   0  0  0  0  0  0  0  0  0  0  0  0
    9.2328   -0.1998   22.5012 H   0  0  0  0  0  0  0  0  0  0  0  0
    8.3661   -0.1773   25.1821 H   0  0  0  0  0  0  0  0  0  0  0  0
    6.4451    1.5161   22.8339 H   0  0  0  0  0  0  0  0  0  0  0  0
    6.1116    3.6061   22.2914 H   0  0  0  0  0  0  0  0  0  0  0  0
    7.9726    3.4560   20.8972 H   0  0  0  0  0  0  0  0  0  0  0  0
    8.2377    4.9832   21.7539 H   0  0  0  0  0  0  0  0  0  0  0  0
    9.5440    3.2968   23.3497 H   0  0  0  0  0  0  0  0  0  0  0  0
    9.6918    2.4784   21.8845 H   0  0  0  0  0  0  0  0  0  0  0  0
   10.2619    4.0544   21.9793 H   0  0  0  0  0  0  0  0  0  0  0  0
    6.5732    3.8283   24.9410 H   0  0  0  0  0  0  0  0  0  0  0  0
    7.9709    4.7552   24.3880 H   0  0  0  0  0  0  0  0  0  0  0  0
    6.0914    6.1922   24.9152 H   0  0  0  0  0  0  0  0  0  0  0  0
    3.9063    5.7903   24.2720 H   0  0  0  0  0  0  0  0  0  0  0  0
    4.3925    4.2739   23.5358 H   0  0  0  0  0  0  0  0  0  0  0  0
    4.2888    5.2347   21.3610 H   0  0  0  0  0  0  0  0  0  0  0  0
    3.5088    6.6220   22.1164 H   0  0  0  0  0  0  0  0  0  0  0  0
    5.8034    7.2379   21.0876 H   0  0  0  0  0  0  0  0  0  0  0  0
    1.1295    1.4309   24.6850 H   0  0  0  0  0  0  0  0  0  0  0  0
    1.5468   -0.2488   24.3269 H   0  0  0  0  0  0  0  0  0  0  0  0
    1.5787    0.3249   26.0028 H   0  0  0  0  0  0  0  0  0  0  0  0
    3.4902    1.9944   26.7416 H   0  0  0  0  0  0  0  0  0  0  0  0
    2.8601    3.0523   25.4667 H   0  0  0  0  0  0  0  0  0  0  0  0
    4.5771    2.6232   25.5015 H   0  0  0  0  0  0  0  0  0  0  0  0
    3.2508    0.5588   22.6429 H   0  0  0  0  0  0  0  0  0  0  0  0
    4.5014    1.7258   23.1093 H   0  0  0  0  0  0  0  0  0  0  0  0
    2.8196    2.2119   23.0327 H   0  0  0  0  0  0  0  0  0  0  0  0
  1  2  1  0
  2  3  1  0
  3  4  2  0
  3  5  1  0
  5  6  1  0
  6  7  1  0
  7  8  2  0
  7  9  1  0
  9 10  1  0
 10 11  1  0
 11 12  1  0
 12 13  1  0
 12 14  1  0
 12 15  1  0
 11 16  1  0
 16 17  1  0
 17 18  1  0
 18 19  2  0
 18 20  1  0
 20 21  1  0
 21 22  1  0
 22 23  1  0
 21 24  1  0
 24 25  1  0
 25 26  1  0
 26 27  1  0
 27 28  1  0
 28 29  1  0
 29 30  2  0
  6 31  1  0
 31 32  1  0
 31 33  1  0
 31 34  1  0
 17  9  1  0
 29 25  1  0
  1 35  1  0
  1 36  1  0
  1 37  1  0
  5 38  1  0
  6 39  1  6
 10 40  1  0
 10 41  1  0
 11 42  1  6
 16 43  1  0
 16 44  1  0
 17 45  1  1
 20 46  1  0
 21 47  1  6
 22 48  1  0
 22 49  1  0
 23 50  1  0
 23 51  1  0
 23 52  1  0
 24 53  1  0
 24 54  1  0
 25 55  1  1
 26 56  1  0
 26 57  1  0
 27 58  1  0
 27 59  1  0
 28 60  1  0
 32 61  1  0
 32 62  1  0
 32 63  1  0
 33 64  1  0
 33 65  1  0
 33 66  1  0
 34 67  1  0
 34 68  1  0
 34 69  1  0
M  CHG  1  23   1
M  END
$$$$
