
     RDKit          3D

 57 62  0  0  0  0  0  0  0  0999 V2000
   -8.4193   -3.8270  -23.7071 C   0  0  0  0  0  0  0  0  0  0  0  0
   -8.5218   -2.8272  -22.5617 C   0  0  1  0  0  0  0  0  0  0  0  0
   -7.2078   -2.5775  -21.8067 C   0  0  0  0  0  0  0  0  0  0  0  0
   -7.4865   -1.3285  -21.1354 N   0  0  0  0  0  0  0  0  0  0  0  0
   -6.6388   -0.8173  -20.1171 C   0  0  0  0  0  0  0  0  0  0  0  0
   -6.8723   -1.1647  -18.8103 C   0  0  0  0  0  0  0  0  0  0  0  0
   -6.1064   -0.7739  -17.7630 N   0  0  0  0  0  0  0  0  0  0  0  0
   -5.0808    0.0037  -18.0103 C   0  0  0  0  0  0  0  0  0  0  0  0
   -4.7402    0.4645  -19.3149 C   0  0  0  0  0  0  0  0  0  0  0  0
   -3.6582    1.3578  -19.5303 C   0  0  0  0  0  0  0  0  0  0  0  0
   -3.3174    1.7544  -20.7930 C   0  0  0  0  0  0  0  0  0  0  0  0
   -4.0436    1.2665  -21.9001 C   0  0  0  0  0  0  0  0  0  0  0  0
   -5.1274    0.4398  -21.7165 C   0  0  0  0  0  0  0  0  0  0  0  0
   -5.5149    0.0220  -20.4138 C   0  0  0  0  0  0  0  0  0  0  0  0
   -8.4730   -0.5830  -21.7592 C   0  0  0  0  0  0  0  0  0  0  0  0
   -8.8049    0.5299  -21.4346 O   0  0  0  0  0  0  0  0  0  0  0  0
   -9.0562   -1.4175  -22.9330 C   0  0  1  0  0  0  0  0  0  0  0  0
   -8.4945   -0.8740  -24.2763 C   0  0  0  0  0  0  0  0  0  0  0  0
   -8.9745    0.4663  -24.5652 N   0  0  0  0  0  0  0  0  0  0  0  0
   -8.1458    1.4015  -25.2920 C   0  0  0  0  0  0  0  0  0  0  0  0
   -7.7388    2.6042  -24.4966 C   0  0  0  0  0  0  0  0  0  0  0  0
   -7.8621    3.7815  -25.1024 N   0  0  0  0  0  0  0  0  0  0  0  0
   -7.4688    4.8443  -24.4103 C   0  0  0  0  0  0  0  0  0  0  0  0
   -6.9544    4.7326  -23.1274 C   0  0  0  0  0  0  0  0  0  0  0  0
   -6.8565    3.4503  -22.6093 C   0  0  0  0  0  0  0  0  0  0  0  0
   -7.2304    2.3697  -23.2886 N   0  0  0  0  0  0  0  0  0  0  0  0
  -10.2298    0.8915  -24.2428 C   0  0  0  0  0  0  0  0  0  0  0  0
  -10.6156    2.0367  -24.4387 O   0  0  0  0  0  0  0  0  0  0  0  0
  -11.1090   -0.1418  -23.6211 C   0  0  0  0  0  0  0  0  0  0  0  0
  -12.4779    0.1231  -23.5992 C   0  0  0  0  0  0  0  0  0  0  0  0
  -13.3540   -0.7911  -23.0485 C   0  0  0  0  0  0  0  0  0  0  0  0
  -12.8221   -1.9701  -22.5358 C   0  0  0  0  0  0  0  0  0  0  0  0
  -13.6583   -2.8588  -21.9664 F   0  0  0  0  0  0  0  0  0  0  0  0
  -11.4697   -2.2610  -22.5595 C   0  0  0  0  0  0  0  0  0  0  0  0
  -10.5697   -1.3031  -23.0454 C   0  0  0  0  0  0  0  0  0  0  0  0
   -9.3769   -3.9163  -24.2320 H   0  0  0  0  0  0  0  0  0  0  0  0
   -7.6643   -3.5139  -24.4377 H   0  0  0  0  0  0  0  0  0  0  0  0
   -8.1318   -4.8256  -23.3608 H   0  0  0  0  0  0  0  0  0  0  0  0
   -9.2187   -3.2041  -21.8043 H   0  0  0  0  0  0  0  0  0  0  0  0
   -6.9558   -3.3547  -21.0769 H   0  0  0  0  0  0  0  0  0  0  0  0
   -6.3491   -2.4804  -22.4921 H   0  0  0  0  0  0  0  0  0  0  0  0
   -7.7469   -1.7633  -18.5559 H   0  0  0  0  0  0  0  0  0  0  0  0
   -4.4760    0.3293  -17.1610 H   0  0  0  0  0  0  0  0  0  0  0  0
   -3.1222    1.7278  -18.6635 H   0  0  0  0  0  0  0  0  0  0  0  0
   -2.5032    2.4570  -20.9475 H   0  0  0  0  0  0  0  0  0  0  0  0
   -3.7484    1.5625  -22.9024 H   0  0  0  0  0  0  0  0  0  0  0  0
   -5.7083    0.1237  -22.5784 H   0  0  0  0  0  0  0  0  0  0  0  0
   -7.3992   -0.8516  -24.2315 H   0  0  0  0  0  0  0  0  0  0  0  0
   -8.7988   -1.5611  -25.0762 H   0  0  0  0  0  0  0  0  0  0  0  0
   -7.2379    0.8761  -25.5924 H   0  0  0  0  0  0  0  0  0  0  0  0
   -8.6706    1.7652  -26.1739 H   0  0  0  0  0  0  0  0  0  0  0  0
   -7.5778    5.7957  -24.9235 H   0  0  0  0  0  0  0  0  0  0  0  0
   -6.6516    5.6023  -22.5622 H   0  0  0  0  0  0  0  0  0  0  0  0
   -6.4574    3.2576  -21.6158 H   0  0  0  0  0  0  0  0  0  0  0  0
  -12.8185    1.0767  -23.9919 H   0  0  0  0  0  0  0  0  0  0  0  0
  -14.4231   -0.6161  -22.9649 H   0  0  0  0  0  0  0  0  0  0  0  0
  -11.1527   -3.2191  -22.1589 H   0  0  0  0  0  0  0  0  0  0  0  0
  1  2  1  0
  2  3  1  0
  3  4  1  0
  4  5  1  0
  5  6  2  0
  6  7  1  0
  7  8  2  0
  8  9  1  0
  9 10  2  0
 10 11  1  0
 11 12  2  0
 12 13  1  0
 13 14  2  0
  4 15  1  0
 15 16  2  0
 15 17  1  0
 17 18  1  6
 18 19  1  0
 19 20  1  0
 20 21  1  0
 21 22  2  0
 22 23  1  0
 23 24  2  0
 24 25  1  0
 25 26  2  0
 19 27  1  0
 27 28  2  0
 27 29  1  0
 29 30  2  0
 30 31  1  0
 31 32  2  0
 32 33  1  0
 32 34  1  0
 34 35  2  0
 17  2  1  0
 26 21  1  0
 35 29  1  0
 14  5  1  0
 35 17  1  0
 14  9  1  0
  1 36  1  0
  1 37  1  0
  1 38  1  0
  2 39  1  1
  3 40  1  0
  3 41  1  0
  6 42  1  0
  8 43  1  0
 10 44  1  0
 11 45  1  0
 12 46  1  0
 13 47  1  0
 18 48  1  0
 18 49  1  0
 20 50  1  0
 20 51  1  0
 23 52  1  0
 24 53  1  0
 25 54  1  0
 30 55  1  0
 31 56  1  0
 34 57  1  0
M  END
