
     RDKit          3D

 57 62  0  0  0  0  0  0  0  0999 V2000
    8.9247   -2.7426   23.6859 C   0  0  0  0  0  0  0  0  0  0  0  0
    8.9742   -1.7590   22.5231 C   0  0  1  0  0  0  0  0  0  0  0  0
    7.6376   -1.5581   21.7936 C   0  0  0  0  0  0  0  0  0  0  0  0
    7.8664   -0.3129   21.0969 N   0  0  0  0  0  0  0  0  0  0  0  0
    6.9828    0.1580   20.0898 C   0  0  0  0  0  0  0  0  0  0  0  0
    7.1974   -0.2040   18.7837 C   0  0  0  0  0  0  0  0  0  0  0  0
    6.3982    0.1484   17.7477 N   0  0  0  0  0  0  0  0  0  0  0  0
    5.3569    0.9012   18.0055 C   0  0  0  0  0  0  0  0  0  0  0  0
    5.0320    1.3735   19.3100 C   0  0  0  0  0  0  0  0  0  0  0  0
    3.9303    2.2399   19.5354 C   0  0  0  0  0  0  0  0  0  0  0  0
    3.6061    2.6473   20.7990 C   0  0  0  0  0  0  0  0  0  0  0  0
    4.3696    2.1978   21.8972 C   0  0  0  0  0  0  0  0  0  0  0  0
    5.4719    1.3985   21.7025 C   0  0  0  0  0  0  0  0  0  0  0  0
    5.8425    0.9705   20.3982 C   0  0  0  0  0  0  0  0  0  0  0  0
    8.8450    0.4696   21.6869 C   0  0  0  0  0  0  0  0  0  0  0  0
    9.1384    1.5859   21.3376 O   0  0  0  0  0  0  0  0  0  0  0  0
    9.4768   -0.3292   22.8603 C   0  0  1  0  0  0  0  0  0  0  0  0
    8.9294    0.2202   24.2071 C   0  0  0  0  0  0  0  0  0  0  0  0
    9.3778    1.5778   24.4643 N   0  0  0  0  0  0  0  0  0  0  0  0
    8.5393    2.5014   25.1946 C   0  0  0  0  0  0  0  0  0  0  0  0
    8.0815    3.6793   24.3897 C   0  0  0  0  0  0  0  0  0  0  0  0
    8.1849    4.8693   24.9742 N   0  0  0  0  0  0  0  0  0  0  0  0
    7.7469    5.9094   24.2745 C   0  0  0  0  0  0  0  0  0  0  0  0
    7.2081    5.7626   23.0052 C   0  0  0  0  0  0  0  0  0  0  0  0
    7.1349    4.4699   22.5095 C   0  0  0  0  0  0  0  0  0  0  0  0
    7.5537    3.4112   23.1972 N   0  0  0  0  0  0  0  0  0  0  0  0
   10.6134    2.0323   24.1075 C   0  0  0  0  0  0  0  0  0  0  0  0
   10.9711    3.1908   24.2768 O   0  0  0  0  0  0  0  0  0  0  0  0
   11.5075    1.0138   23.4826 C   0  0  0  0  0  0  0  0  0  0  0  0
   12.8676    1.3161   23.4262 C   0  0  0  0  0  0  0  0  0  0  0  0
   13.7568    0.4177   22.8705 C   0  0  0  0  0  0  0  0  0  0  0  0
   13.2472   -0.7837   22.3882 C   0  0  0  0  0  0  0  0  0  0  0  0
   14.0954   -1.6580   21.8144 F   0  0  0  0  0  0  0  0  0  0  0  0
   11.9043   -1.1115   22.4465 C   0  0  0  0  0  0  0  0  0  0  0  0
   10.9886   -0.1712   22.9373 C   0  0  0  0  0  0  0  0  0  0  0  0
    9.8956   -2.7968   24.1908 H   0  0  0  0  0  0  0  0  0  0  0  0
    8.1773   -2.4387   24.4281 H   0  0  0  0  0  0  0  0  0  0  0  0
    8.6579   -3.7542   23.3618 H   0  0  0  0  0  0  0  0  0  0  0  0
    9.6647   -2.1287   21.7563 H   0  0  0  0  0  0  0  0  0  0  0  0
    7.3916   -2.3538   21.0818 H   0  0  0  0  0  0  0  0  0  0  0  0
    6.7916   -1.4737   22.4963 H   0  0  0  0  0  0  0  0  0  0  0  0
    8.0827   -0.7822   18.5193 H   0  0  0  0  0  0  0  0  0  0  0  0
    4.7248    1.1961   17.1649 H   0  0  0  0  0  0  0  0  0  0  0  0
    3.3654    2.5808   18.6750 H   0  0  0  0  0  0  0  0  0  0  0  0
    2.7760    3.3295   20.9606 H   0  0  0  0  0  0  0  0  0  0  0  0
    4.0881    2.5017   22.9011 H   0  0  0  0  0  0  0  0  0  0  0  0
    6.0801    1.1127   22.5561 H   0  0  0  0  0  0  0  0  0  0  0  0
    7.8332    0.2116   24.1863 H   0  0  0  0  0  0  0  0  0  0  0  0
    9.2702   -0.4451   25.0107 H   0  0  0  0  0  0  0  0  0  0  0  0
    7.6532    1.9560   25.5233 H   0  0  0  0  0  0  0  0  0  0  0  0
    9.0727    2.8938   26.0588 H   0  0  0  0  0  0  0  0  0  0  0  0
    7.8404    6.8716   24.7702 H   0  0  0  0  0  0  0  0  0  0  0  0
    6.8688    6.6143   22.4334 H   0  0  0  0  0  0  0  0  0  0  0  0
    6.7198    4.2501   21.5283 H   0  0  0  0  0  0  0  0  0  0  0  0
   13.1898    2.2851   23.7963 H   0  0  0  0  0  0  0  0  0  0  0  0
   14.8185    0.6209   22.7605 H   0  0  0  0  0  0  0  0  0  0  0  0
   11.6056   -2.0844   22.0681 H   0  0  0  0  0  0  0  0  0  0  0  0
  1  2  1  0
  2  3  1  0
  3  4  1  0
  4  5  1  0
  5  6  2  0
  6  7  1  0
  7  8  2  0
  8  9  1  0
  9 10  2  0
 10 11  1  0
 11 12  2  0
 12 13  1  0
 13 14  2  0
  4 15  1  0
 15 16  2  0
 15 17  1  0
 17 18  1  1
 18 19  1  0
 19 20  1  0
 20 21  1  0
 21 22  2  0
 22 23  1  0
 23 24  2  0
 24 25  1  0
 25 26  2  0
 19 27  1  0
 27 28  2  0
 27 29  1  0
 29 30  2  0
 30 31  1  0
 31 32  2  0
 32 33  1  0
 32 34  1  0
 34 35  2  0
 17  2  1  0
 26 21  1  0
 35 29  1  0
 14  5  1  0
 35 17  1  0
 14  9  1  0
  1 36  1  0
  1 37  1  0
  1 38  1  0
  2 39  1  6
  3 40  1  0
  3 41  1  0
  6 42  1  0
  8 43  1  0
 10 44  1  0
 11 45  1  0
 12 46  1  0
 13 47  1  0
 18 48  1  0
 18 49  1  0
 20 50  1  0
 20 51  1  0
 23 52  1  0
 24 53  1  0
 25 54  1  0
 30 55  1  0
 31 56  1  0
 34 57  1  0
M  END
$$$$
