
     RDKit          3D

 66 71  0  0  0  0  0  0  0  0999 V2000
   -7.0173    3.6302  -22.4782 C   0  0  0  0  0  0  0  0  0  0  0  0
   -7.7708    2.6689  -23.2579 N   0  0  0  0  0  0  0  0  0  0  0  0
   -7.4867    2.5194  -24.5718 C   0  0  0  0  0  0  0  0  0  0  0  0
   -6.7235    3.2506  -25.1867 O   0  0  0  0  0  0  0  0  0  0  0  0
   -8.1583    1.3624  -25.3223 C   0  0  0  0  0  0  0  0  0  0  0  0
   -8.9830    0.4679  -24.5507 N   0  0  0  0  0  0  0  0  0  0  0  0
   -8.5106   -0.8802  -24.2785 C   0  0  0  0  0  0  0  0  0  0  0  0
   -9.0730   -1.4223  -22.9386 C   0  0  2  0  0  0  0  0  0  0  0  0
   -8.4724   -0.5762  -21.7846 C   0  0  0  0  0  0  0  0  0  0  0  0
   -8.7608    0.5752  -21.5081 O   0  0  0  0  0  0  0  0  0  0  0  0
   -7.5081   -1.3105  -21.1412 N   0  0  0  0  0  0  0  0  0  0  0  0
   -6.6613   -0.7883  -20.1214 C   0  0  0  0  0  0  0  0  0  0  0  0
   -6.8861   -1.1486  -18.8156 C   0  0  0  0  0  0  0  0  0  0  0  0
   -6.1172   -0.7656  -17.7671 N   0  0  0  0  0  0  0  0  0  0  0  0
   -5.0889    0.0080  -18.0163 C   0  0  0  0  0  0  0  0  0  0  0  0
   -4.7445    0.4707  -19.3182 C   0  0  0  0  0  0  0  0  0  0  0  0
   -3.6584    1.3627  -19.5273 C   0  0  0  0  0  0  0  0  0  0  0  0
   -3.3280    1.7602  -20.7920 C   0  0  0  0  0  0  0  0  0  0  0  0
   -4.0580    1.2857  -21.9048 C   0  0  0  0  0  0  0  0  0  0  0  0
   -5.1382    0.4563  -21.7245 C   0  0  0  0  0  0  0  0  0  0  0  0
   -5.5291    0.0432  -20.4177 C   0  0  0  0  0  0  0  0  0  0  0  0
   -7.2208   -2.5585  -21.8191 C   0  0  0  0  0  0  0  0  0  0  0  0
   -8.5263   -2.8310  -22.5766 C   0  0  2  0  0  0  0  0  0  0  0  0
   -8.3842   -3.8571  -23.7163 C   0  0  0  0  0  0  0  0  0  0  0  0
   -9.7299   -4.2945  -24.2678 C   0  0  0  0  0  0  0  0  0  0  0  0
  -10.5783   -5.0567  -23.4638 C   0  0  0  0  0  0  0  0  0  0  0  0
  -11.8782   -5.3428  -23.8547 C   0  0  0  0  0  0  0  0  0  0  0  0
  -12.2955   -5.0582  -25.1486 C   0  0  0  0  0  0  0  0  0  0  0  0
  -11.4426   -4.3600  -25.9901 C   0  0  0  0  0  0  0  0  0  0  0  0
  -10.1939   -3.9386  -25.5364 C   0  0  0  0  0  0  0  0  0  0  0  0
  -10.5818   -1.2883  -23.0411 C   0  0  0  0  0  0  0  0  0  0  0  0
  -11.4721   -2.2226  -22.5187 C   0  0  0  0  0  0  0  0  0  0  0  0
  -12.8285   -1.9640  -22.5017 C   0  0  0  0  0  0  0  0  0  0  0  0
  -13.8625   -3.1445  -21.7394 Cl  0  0  0  0  0  0  0  0  0  0  0  0
  -13.3715   -0.7942  -23.0291 C   0  0  0  0  0  0  0  0  0  0  0  0
  -12.5034    0.1157  -23.5925 C   0  0  0  0  0  0  0  0  0  0  0  0
  -11.1341   -0.1385  -23.6197 C   0  0  0  0  0  0  0  0  0  0  0  0
  -10.2528    0.8820  -24.2605 C   0  0  0  0  0  0  0  0  0  0  0  0
  -10.6393    2.0207  -24.4966 O   0  0  0  0  0  0  0  0  0  0  0  0
   -7.1458    3.3857  -21.4186 H   0  0  0  0  0  0  0  0  0  0  0  0
   -5.9611    3.5564  -22.7410 H   0  0  0  0  0  0  0  0  0  0  0  0
   -7.3299    4.6640  -22.6536 H   0  0  0  0  0  0  0  0  0  0  0  0
   -8.3191    1.9850  -22.7444 H   0  0  0  0  0  0  0  0  0  0  0  0
   -8.7445    1.8013  -26.1360 H   0  0  0  0  0  0  0  0  0  0  0  0
   -7.3503    0.7901  -25.7867 H   0  0  0  0  0  0  0  0  0  0  0  0
   -8.8152   -1.5543  -25.0883 H   0  0  0  0  0  0  0  0  0  0  0  0
   -7.4172   -0.8628  -24.2362 H   0  0  0  0  0  0  0  0  0  0  0  0
   -7.7385   -1.7815  -18.5709 H   0  0  0  0  0  0  0  0  0  0  0  0
   -4.4819    0.3347  -17.1705 H   0  0  0  0  0  0  0  0  0  0  0  0
   -3.1039    1.7206  -18.6627 H   0  0  0  0  0  0  0  0  0  0  0  0
   -2.5015    2.4443  -20.9535 H   0  0  0  0  0  0  0  0  0  0  0  0
   -3.7862    1.6099  -22.9074 H   0  0  0  0  0  0  0  0  0  0  0  0
   -5.7042    0.1200  -22.5889 H   0  0  0  0  0  0  0  0  0  0  0  0
   -6.3706   -2.4728  -22.5203 H   0  0  0  0  0  0  0  0  0  0  0  0
   -6.9895   -3.3307  -21.0828 H   0  0  0  0  0  0  0  0  0  0  0  0
   -9.2156   -3.2450  -21.8331 H   0  0  0  0  0  0  0  0  0  0  0  0
   -7.7522   -3.4423  -24.5122 H   0  0  0  0  0  0  0  0  0  0  0  0
   -7.8640   -4.7457  -23.3301 H   0  0  0  0  0  0  0  0  0  0  0  0
  -10.2483   -5.3540  -22.4716 H   0  0  0  0  0  0  0  0  0  0  0  0
  -12.5620   -5.7650  -23.1364 H   0  0  0  0  0  0  0  0  0  0  0  0
  -13.2676   -5.3822  -25.5045 H   0  0  0  0  0  0  0  0  0  0  0  0
  -11.7544   -4.1319  -27.0087 H   0  0  0  0  0  0  0  0  0  0  0  0
   -9.5828   -3.3268  -26.1974 H   0  0  0  0  0  0  0  0  0  0  0  0
  -11.1372   -3.1455  -22.0731 H   0  0  0  0  0  0  0  0  0  0  0  0
  -14.4389   -0.6076  -22.9739 H   0  0  0  0  0  0  0  0  0  0  0  0
  -12.8651    1.0482  -24.0114 H   0  0  0  0  0  0  0  0  0  0  0  0
  1  2  1  0
  2  3  1  0
  3  4  2  0
  3  5  1  0
  5  6  1  0
  6  7  1  0
  8  7  1  6
  8  9  1  0
  9 10  2  0
  9 11  1  0
 11 12  1  0
 12 13  2  0
 13 14  1  0
 14 15  2  0
 15 16  1  0
 16 17  2  0
 17 18  1  0
 18 19  2  0
 19 20  1  0
 20 21  2  0
 11 22  1  0
 22 23  1  0
 23 24  1  0
 24 25  1  0
 25 26  2  0
 26 27  1  0
 27 28  2  0
 28 29  1  0
 29 30  2  0
  8 31  1  0
 31 32  2  0
 32 33  1  0
 33 34  1  0
 33 35  2  0
 35 36  1  0
 36 37  2  0
 37 38  1  0
 38 39  2  0
 38  6  1  0
 23  8  1  0
 30 25  1  0
 37 31  1  0
 21 12  1  0
 21 16  1  0
  1 40  1  0
  1 41  1  0
  1 42  1  0
  2 43  1  0
  5 44  1  0
  5 45  1  0
  7 46  1  0
  7 47  1  0
 13 48  1  0
 15 49  1  0
 17 50  1  0
 18 51  1  0
 19 52  1  0
 20 53  1  0
 22 54  1  0
 22 55  1  0
 23 56  1  1
 24 57  1  0
 24 58  1  0
 26 59  1  0
 27 60  1  0
 28 61  1  0
 29 62  1  0
 30 63  1  0
 32 64  1  0
 35 65  1  0
 36 66  1  0
M  END
