
     RDKit          3D

 58 63  0  0  0  0  0  0  0  0999 V2000
   -8.4232   -3.8376  -23.6949 C   0  0  0  0  0  0  0  0  0  0  0  0
   -8.5231   -2.8320  -22.5564 C   0  0  1  0  0  0  0  0  0  0  0  0
   -7.2058   -2.5776  -21.8112 C   0  0  0  0  0  0  0  0  0  0  0  0
   -7.4900   -1.3314  -21.1303 N   0  0  0  0  0  0  0  0  0  0  0  0
   -6.6399   -0.8147  -20.1144 C   0  0  0  0  0  0  0  0  0  0  0  0
   -6.8600   -1.1801  -18.8079 C   0  0  0  0  0  0  0  0  0  0  0  0
   -6.0770   -0.8122  -17.7653 N   0  0  0  0  0  0  0  0  0  0  0  0
   -5.0550   -0.0345  -18.0205 C   0  0  0  0  0  0  0  0  0  0  0  0
   -4.7307    0.4498  -19.3194 C   0  0  0  0  0  0  0  0  0  0  0  0
   -3.6563    1.3548  -19.5282 C   0  0  0  0  0  0  0  0  0  0  0  0
   -3.3288    1.7597  -20.7890 C   0  0  0  0  0  0  0  0  0  0  0  0
   -4.0531    1.2793  -21.9022 C   0  0  0  0  0  0  0  0  0  0  0  0
   -5.1366    0.4499  -21.7203 C   0  0  0  0  0  0  0  0  0  0  0  0
   -5.5172    0.0243  -20.4171 C   0  0  0  0  0  0  0  0  0  0  0  0
   -8.4716   -0.5818  -21.7571 C   0  0  0  0  0  0  0  0  0  0  0  0
   -8.7841    0.5417  -21.4441 O   0  0  0  0  0  0  0  0  0  0  0  0
   -9.0573   -1.4227  -22.9292 C   0  0  1  0  0  0  0  0  0  0  0  0
   -8.4870   -0.8813  -24.2713 C   0  0  0  0  0  0  0  0  0  0  0  0
   -8.9657    0.4590  -24.5660 N   0  0  0  0  0  0  0  0  0  0  0  0
   -8.1424    1.3726  -25.3325 C   0  0  0  0  0  0  0  0  0  0  0  0
   -7.7227    2.6006  -24.5544 C   0  0  0  0  0  0  0  0  0  0  0  0
   -7.8006    3.8452  -25.0979 C   0  0  0  0  0  0  0  0  0  0  0  0
   -7.3747    5.0048  -24.3422 C   0  0  0  0  0  0  0  0  0  0  0  0
   -7.3603    6.1679  -24.6878 O   0  0  0  0  0  0  0  0  0  0  0  0
   -6.9331    4.6343  -23.0514 N   0  0  0  0  0  0  0  0  0  0  0  0
   -6.8431    3.3558  -22.6042 C   0  0  0  0  0  0  0  0  0  0  0  0
   -7.1970    2.3343  -23.3210 N   0  0  0  0  0  0  0  0  0  0  0  0
  -10.2174    0.8877  -24.2306 C   0  0  0  0  0  0  0  0  0  0  0  0
  -10.5971    2.0352  -24.4228 O   0  0  0  0  0  0  0  0  0  0  0  0
  -11.1043   -0.1440  -23.6115 C   0  0  0  0  0  0  0  0  0  0  0  0
  -12.4713    0.1228  -23.5974 C   0  0  0  0  0  0  0  0  0  0  0  0
  -13.3539   -0.8000  -23.0789 C   0  0  0  0  0  0  0  0  0  0  0  0
  -12.8262   -1.9944  -22.6018 C   0  0  0  0  0  0  0  0  0  0  0  0
  -13.6811   -2.8984  -22.0921 F   0  0  0  0  0  0  0  0  0  0  0  0
  -11.4752   -2.2870  -22.6046 C   0  0  0  0  0  0  0  0  0  0  0  0
  -10.5694   -1.3145  -23.0520 C   0  0  0  0  0  0  0  0  0  0  0  0
   -7.6735   -3.5225  -24.4292 H   0  0  0  0  0  0  0  0  0  0  0  0
   -9.3834   -3.9256  -24.2132 H   0  0  0  0  0  0  0  0  0  0  0  0
   -8.1342   -4.8338  -23.3415 H   0  0  0  0  0  0  0  0  0  0  0  0
   -9.2055   -3.2179  -21.7882 H   0  0  0  0  0  0  0  0  0  0  0  0
   -6.3468   -2.4816  -22.5014 H   0  0  0  0  0  0  0  0  0  0  0  0
   -6.9613   -3.3537  -21.0782 H   0  0  0  0  0  0  0  0  0  0  0  0
   -7.7215   -1.8000  -18.5609 H   0  0  0  0  0  0  0  0  0  0  0  0
   -4.4179    0.2567  -17.1842 H   0  0  0  0  0  0  0  0  0  0  0  0
   -3.1063    1.7088  -18.6598 H   0  0  0  0  0  0  0  0  0  0  0  0
   -2.5092    2.4543  -20.9433 H   0  0  0  0  0  0  0  0  0  0  0  0
   -3.7516    1.5722  -22.9037 H   0  0  0  0  0  0  0  0  0  0  0  0
   -5.7088    0.1288  -22.5856 H   0  0  0  0  0  0  0  0  0  0  0  0
   -8.7808   -1.5686  -25.0756 H   0  0  0  0  0  0  0  0  0  0  0  0
   -7.3918   -0.8556  -24.2189 H   0  0  0  0  0  0  0  0  0  0  0  0
   -8.6575    1.6627  -26.2540 H   0  0  0  0  0  0  0  0  0  0  0  0
   -7.2308    0.8385  -25.6100 H   0  0  0  0  0  0  0  0  0  0  0  0
   -8.1472    3.9905  -26.1103 H   0  0  0  0  0  0  0  0  0  0  0  0
   -6.6047    5.4011  -22.4824 H   0  0  0  0  0  0  0  0  0  0  0  0
   -6.4483    3.2063  -21.5983 H   0  0  0  0  0  0  0  0  0  0  0  0
  -12.8087    1.0796  -23.9803 H   0  0  0  0  0  0  0  0  0  0  0  0
  -14.4241   -0.6293  -23.0324 H   0  0  0  0  0  0  0  0  0  0  0  0
  -11.1719   -3.2682  -22.2506 H   0  0  0  0  0  0  0  0  0  0  0  0
  1  2  1  0
  2  3  1  0
  3  4  1  0
  4  5  1  0
  5  6  2  0
  6  7  1  0
  7  8  2  0
  8  9  1  0
  9 10  2  0
 10 11  1  0
 11 12  2  0
 12 13  1  0
 13 14  2  0
  4 15  1  0
 15 16  2  0
 15 17  1  0
 17 18  1  6
 18 19  1  0
 19 20  1  0
 20 21  1  0
 21 22  2  0
 22 23  1  0
 23 24  2  0
 23 25  1  0
 25 26  1  0
 26 27  2  0
 19 28  1  0
 28 29  2  0
 28 30  1  0
 30 31  2  0
 31 32  1  0
 32 33  2  0
 33 34  1  0
 33 35  1  0
 35 36  2  0
 17  2  1  0
 27 21  1  0
 36 30  1  0
 14  5  1  0
 36 17  1  0
 14  9  1  0
  1 37  1  0
  1 38  1  0
  1 39  1  0
  2 40  1  1
  3 41  1  0
  3 42  1  0
  6 43  1  0
  8 44  1  0
 10 45  1  0
 11 46  1  0
 12 47  1  0
 13 48  1  0
 18 49  1  0
 18 50  1  0
 20 51  1  0
 20 52  1  0
 22 53  1  0
 25 54  1  0
 26 55  1  0
 31 56  1  0
 32 57  1  0
 35 58  1  0
M  END
