
     RDKit          3D

 58 63  0  0  0  0  0  0  0  0999 V2000
    8.9286   -2.7532   23.6738 C   0  0  0  0  0  0  0  0  0  0  0  0
    8.9755   -1.7639   22.5178 C   0  0  1  0  0  0  0  0  0  0  0  0
    7.6357   -1.5582   21.7982 C   0  0  0  0  0  0  0  0  0  0  0  0
    7.8699   -0.3158   21.0917 N   0  0  0  0  0  0  0  0  0  0  0  0
    6.9837    0.1606   20.0870 C   0  0  0  0  0  0  0  0  0  0  0  0
    7.1855   -0.2198   18.7818 C   0  0  0  0  0  0  0  0  0  0  0  0
    6.3700    0.1093   17.7512 N   0  0  0  0  0  0  0  0  0  0  0  0
    5.3324    0.8625   18.0169 C   0  0  0  0  0  0  0  0  0  0  0  0
    5.0230    1.3586   19.3149 C   0  0  0  0  0  0  0  0  0  0  0  0
    3.9284    2.2368   19.5334 C   0  0  0  0  0  0  0  0  0  0  0  0
    3.6172    2.6529   20.7947 C   0  0  0  0  0  0  0  0  0  0  0  0
    4.3788    2.2109   21.8989 C   0  0  0  0  0  0  0  0  0  0  0  0
    5.4809    1.4090   21.7059 C   0  0  0  0  0  0  0  0  0  0  0  0
    5.8448    0.9730   20.4014 C   0  0  0  0  0  0  0  0  0  0  0  0
    8.8435    0.4707   21.6848 C   0  0  0  0  0  0  0  0  0  0  0  0
    9.1175    1.5972   21.3474 O   0  0  0  0  0  0  0  0  0  0  0  0
    9.4779   -0.3345   22.8566 C   0  0  1  0  0  0  0  0  0  0  0  0
    8.9220    0.2127   24.2024 C   0  0  0  0  0  0  0  0  0  0  0  0
    9.3693    1.5703   24.4654 N   0  0  0  0  0  0  0  0  0  0  0  0
    8.5375    2.4731   25.2356 C   0  0  0  0  0  0  0  0  0  0  0  0
    8.0667    3.6762   24.4479 C   0  0  0  0  0  0  0  0  0  0  0  0
    8.1215    4.9311   24.9701 C   0  0  0  0  0  0  0  0  0  0  0  0
    7.6469    6.0661   24.2060 C   0  0  0  0  0  0  0  0  0  0  0  0
    7.6074    7.2338   24.5336 O   0  0  0  0  0  0  0  0  0  0  0  0
    7.1879    5.6626   22.9312 N   0  0  0  0  0  0  0  0  0  0  0  0
    7.1241    4.3750   22.5062 C   0  0  0  0  0  0  0  0  0  0  0  0
    7.5220    3.3754   23.2308 N   0  0  0  0  0  0  0  0  0  0  0  0
   10.6009    2.0280   24.0956 C   0  0  0  0  0  0  0  0  0  0  0  0
   10.9523    3.1886   24.2614 O   0  0  0  0  0  0  0  0  0  0  0  0
   11.5027    1.0113   23.4732 C   0  0  0  0  0  0  0  0  0  0  0  0
   12.8610    1.3156   23.4245 C   0  0  0  0  0  0  0  0  0  0  0  0
   13.7576    0.4093   22.9010 C   0  0  0  0  0  0  0  0  0  0  0  0
   13.2534   -0.8068   22.4545 C   0  0  0  0  0  0  0  0  0  0  0  0
   14.1220   -1.6950   21.9401 F   0  0  0  0  0  0  0  0  0  0  0  0
   11.9115   -1.1366   22.4919 C   0  0  0  0  0  0  0  0  0  0  0  0
   10.9887   -0.1825   22.9440 C   0  0  0  0  0  0  0  0  0  0  0  0
    8.1866   -2.4471   24.4196 H   0  0  0  0  0  0  0  0  0  0  0  0
    9.9020   -2.8062   24.1720 H   0  0  0  0  0  0  0  0  0  0  0  0
    8.6601   -3.7627   23.3425 H   0  0  0  0  0  0  0  0  0  0  0  0
    9.6516   -2.1432   21.7408 H   0  0  0  0  0  0  0  0  0  0  0  0
    6.7895   -1.4748   22.5057 H   0  0  0  0  0  0  0  0  0  0  0  0
    7.3971   -2.3526   21.0830 H   0  0  0  0  0  0  0  0  0  0  0  0
    8.0585   -0.8195   18.5255 H   0  0  0  0  0  0  0  0  0  0  0  0
    4.6693    1.1223   17.1905 H   0  0  0  0  0  0  0  0  0  0  0  0
    3.3499    2.5613   18.6720 H   0  0  0  0  0  0  0  0  0  0  0  0
    2.7820    3.3269   20.9563 H   0  0  0  0  0  0  0  0  0  0  0  0
    4.0910    2.5115   22.9021 H   0  0  0  0  0  0  0  0  0  0  0  0
    6.0806    1.1179   22.5632 H   0  0  0  0  0  0  0  0  0  0  0  0
    9.2524   -0.4531   25.0106 H   0  0  0  0  0  0  0  0  0  0  0  0
    7.8257    0.2072   24.1739 H   0  0  0  0  0  0  0  0  0  0  0  0
    9.0642    2.7923   26.1408 H   0  0  0  0  0  0  0  0  0  0  0  0
    7.6475    1.9185   25.5416 H   0  0  0  0  0  0  0  0  0  0  0  0
    8.4859    5.1024   25.9721 H   0  0  0  0  0  0  0  0  0  0  0  0
    6.8258    6.4106   22.3578 H   0  0  0  0  0  0  0  0  0  0  0  0
    6.7118    4.1983   21.5118 H   0  0  0  0  0  0  0  0  0  0  0  0
   13.1797    2.2875   23.7848 H   0  0  0  0  0  0  0  0  0  0  0  0
   14.8214    0.6088   22.8281 H   0  0  0  0  0  0  0  0  0  0  0  0
   11.6282   -2.1315   22.1601 H   0  0  0  0  0  0  0  0  0  0  0  0
  1  2  1  0
  2  3  1  0
  3  4  1  0
  4  5  1  0
  5  6  2  0
  6  7  1  0
  7  8  2  0
  8  9  1  0
  9 10  2  0
 10 11  1  0
 11 12  2  0
 12 13  1  0
 13 14  2  0
  4 15  1  0
 15 16  2  0
 15 17  1  0
 17 18  1  1
 18 19  1  0
 19 20  1  0
 20 21  1  0
 21 22  2  0
 22 23  1  0
 23 24  2  0
 23 25  1  0
 25 26  1  0
 26 27  2  0
 19 28  1  0
 28 29  2  0
 28 30  1  0
 30 31  2  0
 31 32  1  0
 32 33  2  0
 33 34  1  0
 33 35  1  0
 35 36  2  0
 17  2  1  0
 27 21  1  0
 36 30  1  0
 14  5  1  0
 36 17  1  0
 14  9  1  0
  1 37  1  0
  1 38  1  0
  1 39  1  0
  2 40  1  6
  3 41  1  0
  3 42  1  0
  6 43  1  0
  8 44  1  0
 10 45  1  0
 11 46  1  0
 12 47  1  0
 13 48  1  0
 18 49  1  0
 18 50  1  0
 20 51  1  0
 20 52  1  0
 22 53  1  0
 25 54  1  0
 26 55  1  0
 31 56  1  0
 32 57  1  0
 35 58  1  0
M  END
$$$$
