
     RDKit          3D

 69 74  0  0  0  0  0  0  0  0999 V2000
   -7.0195    3.6144  -22.4567 C   0  0  0  0  0  0  0  0  0  0  0  0
   -7.7136    2.6102  -23.2323 N   0  0  0  0  0  0  0  0  0  0  0  0
   -7.4615    2.5059  -24.5512 C   0  0  0  0  0  0  0  0  0  0  0  0
   -6.7087    3.2585  -25.1614 O   0  0  0  0  0  0  0  0  0  0  0  0
   -8.1559    1.3748  -25.3232 C   0  0  0  0  0  0  0  0  0  0  0  0
   -8.9790    0.4622  -24.5664 N   0  0  0  0  0  0  0  0  0  0  0  0
   -8.4993   -0.8808  -24.2775 C   0  0  0  0  0  0  0  0  0  0  0  0
   -9.0785   -1.3988  -22.9320 C   0  0  2  0  0  0  0  0  0  0  0  0
   -8.4650   -0.5476  -21.7906 C   0  0  0  0  0  0  0  0  0  0  0  0
   -8.7519    0.5974  -21.4980 O   0  0  0  0  0  0  0  0  0  0  0  0
   -7.4893   -1.2843  -21.1676 N   0  0  0  0  0  0  0  0  0  0  0  0
   -6.6532   -0.7863  -20.1356 C   0  0  0  0  0  0  0  0  0  0  0  0
   -6.8625   -1.1819  -18.8373 C   0  0  0  0  0  0  0  0  0  0  0  0
   -6.0785   -0.8264  -17.7914 N   0  0  0  0  0  0  0  0  0  0  0  0
   -5.0527   -0.0482  -18.0317 C   0  0  0  0  0  0  0  0  0  0  0  0
   -4.7304    0.4483  -19.3275 C   0  0  0  0  0  0  0  0  0  0  0  0
   -3.6378    1.3281  -19.5373 C   0  0  0  0  0  0  0  0  0  0  0  0
   -3.3111    1.7506  -20.7949 C   0  0  0  0  0  0  0  0  0  0  0  0
   -4.0556    1.2954  -21.9046 C   0  0  0  0  0  0  0  0  0  0  0  0
   -5.1371    0.4658  -21.7296 C   0  0  0  0  0  0  0  0  0  0  0  0
   -5.5247    0.0446  -20.4261 C   0  0  0  0  0  0  0  0  0  0  0  0
   -7.2398   -2.5554  -21.8126 C   0  0  0  0  0  0  0  0  0  0  0  0
   -8.5743   -2.7922  -22.5159 C   0  0  2  0  0  0  0  0  0  0  0  0
   -8.5797   -3.8408  -23.6280 C   0  0  0  0  0  0  0  0  0  0  0  0
   -8.3389   -5.1882  -23.1611 N   0  0  0  0  0  0  0  0  0  0  0  0
   -7.1013   -5.7063  -22.9471 C   0  0  0  0  0  0  0  0  0  0  0  0
   -5.9426   -5.1875  -23.5439 C   0  0  0  0  0  0  0  0  0  0  0  0
   -4.7985   -5.9243  -23.3825 C   0  0  0  0  0  0  0  0  0  0  0  0
   -4.7138   -7.0234  -22.6283 N   0  0  0  0  0  0  0  0  0  0  0  0
   -5.8546   -7.3736  -22.0263 C   0  0  0  0  0  0  0  0  0  0  0  0
   -5.8521   -8.5675  -21.1304 C   0  0  0  0  0  0  0  0  0  0  0  0
   -7.0408   -6.7929  -22.1691 N   0  0  0  0  0  0  0  0  0  0  0  0
  -10.5862   -1.3036  -23.0430 C   0  0  0  0  0  0  0  0  0  0  0  0
  -11.4844   -2.2992  -22.6215 C   0  0  0  0  0  0  0  0  0  0  0  0
  -12.8446   -2.0398  -22.5949 C   0  0  0  0  0  0  0  0  0  0  0  0
  -13.9246   -3.2200  -21.8977 Cl  0  0  0  0  0  0  0  0  0  0  0  0
  -13.3689   -0.8396  -23.0756 C   0  0  0  0  0  0  0  0  0  0  0  0
  -12.4943    0.1039  -23.5785 C   0  0  0  0  0  0  0  0  0  0  0  0
  -11.1224   -0.1350  -23.5922 C   0  0  0  0  0  0  0  0  0  0  0  0
  -10.2410    0.8818  -24.2476 C   0  0  0  0  0  0  0  0  0  0  0  0
  -10.6270    2.0231  -24.4799 O   0  0  0  0  0  0  0  0  0  0  0  0
   -5.9519    3.6004  -22.7071 H   0  0  0  0  0  0  0  0  0  0  0  0
   -7.4057    4.6202  -22.6577 H   0  0  0  0  0  0  0  0  0  0  0  0
   -7.1608    3.3847  -21.3960 H   0  0  0  0  0  0  0  0  0  0  0  0
   -8.2633    1.9155  -22.7306 H   0  0  0  0  0  0  0  0  0  0  0  0
   -7.3718    0.8167  -25.8445 H   0  0  0  0  0  0  0  0  0  0  0  0
   -8.7717    1.8541  -26.0895 H   0  0  0  0  0  0  0  0  0  0  0  0
   -7.4046   -0.8502  -24.2270 H   0  0  0  0  0  0  0  0  0  0  0  0
   -8.7863   -1.5598  -25.0925 H   0  0  0  0  0  0  0  0  0  0  0  0
   -7.7082   -1.8228  -18.5909 H   0  0  0  0  0  0  0  0  0  0  0  0
   -4.4245    0.2352  -17.1845 H   0  0  0  0  0  0  0  0  0  0  0  0
   -3.0879    1.6699  -18.6677 H   0  0  0  0  0  0  0  0  0  0  0  0
   -2.4900    2.4464  -20.9463 H   0  0  0  0  0  0  0  0  0  0  0  0
   -3.7865    1.6271  -22.9032 H   0  0  0  0  0  0  0  0  0  0  0  0
   -5.6992    0.1236  -22.5947 H   0  0  0  0  0  0  0  0  0  0  0  0
   -6.4075   -2.4932  -22.5316 H   0  0  0  0  0  0  0  0  0  0  0  0
   -6.9871   -3.3169  -21.0723 H   0  0  0  0  0  0  0  0  0  0  0  0
   -9.2481   -3.1208  -21.7170 H   0  0  0  0  0  0  0  0  0  0  0  0
   -9.5507   -3.8176  -24.1442 H   0  0  0  0  0  0  0  0  0  0  0  0
   -7.8201   -3.5879  -24.3752 H   0  0  0  0  0  0  0  0  0  0  0  0
   -9.0372   -5.6151  -22.5647 H   0  0  0  0  0  0  0  0  0  0  0  0
   -5.9145   -4.2917  -24.1456 H   0  0  0  0  0  0  0  0  0  0  0  0
   -3.9044   -5.6080  -23.9095 H   0  0  0  0  0  0  0  0  0  0  0  0
   -5.2454   -8.4097  -20.2311 H   0  0  0  0  0  0  0  0  0  0  0  0
   -6.8914   -8.7771  -20.8438 H   0  0  0  0  0  0  0  0  0  0  0  0
   -5.4289   -9.4082  -21.6886 H   0  0  0  0  0  0  0  0  0  0  0  0
  -11.1415   -3.2682  -22.2761 H   0  0  0  0  0  0  0  0  0  0  0  0
  -14.4388   -0.6591  -23.0343 H   0  0  0  0  0  0  0  0  0  0  0  0
  -12.8512    1.0434  -23.9838 H   0  0  0  0  0  0  0  0  0  0  0  0
  1  2  1  0
  2  3  1  0
  3  4  2  0
  3  5  1  0
  5  6  1  0
  6  7  1  0
  8  7  1  6
  8  9  1  0
  9 10  2  0
  9 11  1  0
 11 12  1  0
 12 13  2  0
 13 14  1  0
 14 15  2  0
 15 16  1  0
 16 17  2  0
 17 18  1  0
 18 19  2  0
 19 20  1  0
 20 21  2  0
 11 22  1  0
 22 23  1  0
 23 24  1  0
 24 25  1  0
 25 26  1  0
 26 27  2  0
 27 28  1  0
 28 29  2  0
 29 30  1  0
 30 31  1  0
 30 32  2  0
  8 33  1  0
 33 34  2  0
 34 35  1  0
 35 36  1  0
 35 37  2  0
 37 38  1  0
 38 39  2  0
 39 40  1  0
 40 41  2  0
 40  6  1  0
 23  8  1  0
 32 26  1  0
 39 33  1  0
 21 12  1  0
 21 16  1  0
  1 42  1  0
  1 43  1  0
  1 44  1  0
  2 45  1  0
  5 46  1  0
  5 47  1  0
  7 48  1  0
  7 49  1  0
 13 50  1  0
 15 51  1  0
 17 52  1  0
 18 53  1  0
 19 54  1  0
 20 55  1  0
 22 56  1  0
 22 57  1  0
 23 58  1  1
 24 59  1  0
 24 60  1  0
 25 61  1  0
 27 62  1  0
 28 63  1  0
 31 64  1  0
 31 65  1  0
 31 66  1  0
 34 67  1  0
 37 68  1  0
 38 69  1  0
M  END
