mobile
  PyMOL3.1          3D                             0

 41 44  0  0  0  0  0  0  0  0999 V2000
   -8.3166   -0.2221  -21.3071 O   0  0  0  0  0  0  0  0  0  0  0  0
   -7.8365   -1.3271  -21.5077 C   0  0  0  0  0  0  0  0  0  0  0  0
   -8.6146   -2.4163  -22.2277 C   0  0  0  0  0  0  0  0  0  0  0  0
   -9.9745   -1.9656  -22.7329 C   0  0  0  0  0  0  0  0  0  0  0  0
  -10.1087   -0.9588  -23.6807 C   0  0  0  0  0  0  0  0  0  0  0  0
  -11.3574   -0.5176  -24.0703 C   0  0  0  0  0  0  0  0  0  0  0  0
  -11.1192   -2.5545  -22.2128 C   0  0  0  0  0  0  0  0  0  0  0  0
  -12.3688   -2.1271  -22.6126 C   0  0  0  0  0  0  0  0  0  0  0  0
  -13.7704   -2.9334  -21.9847 Cl  0  0  0  0  0  0  0  0  0  0  0  0
  -12.4925   -1.0938  -23.5268 C   0  0  0  0  0  0  0  0  0  0  0  0
  -14.0422   -0.4668  -23.9636 Cl  0  0  0  0  0  0  0  0  0  0  0  0
   -6.5859   -1.6599  -21.0688 N   0  0  0  0  0  0  0  0  0  0  0  0
   -5.7169   -2.6579  -21.7253 C   0  0  0  0  0  0  0  0  0  0  0  0
   -6.4820   -3.6941  -22.5505 C   0  0  0  0  0  0  0  0  0  0  0  0
   -7.7007   -3.0948  -23.2498 C   0  0  0  0  0  0  0  0  0  0  0  0
   -5.9595   -0.8935  -20.0357 C   0  0  0  0  0  0  0  0  0  0  0  0
   -4.9188    0.0582  -20.2643 C   0  0  0  0  0  0  0  0  0  0  0  0
   -4.4002    0.3838  -21.5472 C   0  0  0  0  0  0  0  0  0  0  0  0
   -3.3998    1.3031  -21.6900 C   0  0  0  0  0  0  0  0  0  0  0  0
   -2.8616    1.9385  -20.5833 C   0  0  0  0  0  0  0  0  0  0  0  0
   -3.3279    1.6657  -19.3287 C   0  0  0  0  0  0  0  0  0  0  0  0
   -4.3717    0.7284  -19.1350 C   0  0  0  0  0  0  0  0  0  0  0  0
   -4.9168    0.4282  -17.8606 C   0  0  0  0  0  0  0  0  0  0  0  0
   -5.8971   -0.4370  -17.6546 N   0  0  0  0  0  0  0  0  0  0  0  0
   -6.3861   -1.0753  -18.7252 C   0  0  0  0  0  0  0  0  0  0  0  0
   -8.8225   -3.1825  -21.4664 H   0  0  0  0  0  0  0  0  0  0  0  0
   -9.2255   -0.5172  -24.1185 H   0  0  0  0  0  0  0  0  0  0  0  0
  -11.4490    0.2763  -24.7973 H   0  0  0  0  0  0  0  0  0  0  0  0
  -11.0305   -3.3533  -21.4899 H   0  0  0  0  0  0  0  0  0  0  0  0
   -5.0225   -2.1278  -22.3926 H   0  0  0  0  0  0  0  0  0  0  0  0
   -5.1465   -3.1863  -20.9473 H   0  0  0  0  0  0  0  0  0  0  0  0
   -5.8054   -4.1079  -23.3123 H   0  0  0  0  0  0  0  0  0  0  0  0
   -6.8182   -4.5000  -21.8817 H   0  0  0  0  0  0  0  0  0  0  0  0
   -7.3675   -2.3522  -23.9884 H   0  0  0  0  0  0  0  0  0  0  0  0
   -8.2575   -3.8956  -23.7595 H   0  0  0  0  0  0  0  0  0  0  0  0
   -4.8042   -0.1025  -22.4221 H   0  0  0  0  0  0  0  0  0  0  0  0
   -3.0242    1.5359  -22.6761 H   0  0  0  0  0  0  0  0  0  0  0  0
   -2.0667    2.6568  -20.7132 H   0  0  0  0  0  0  0  0  0  0  0  0
   -2.8962    2.1701  -18.4770 H   0  0  0  0  0  0  0  0  0  0  0  0
   -4.5052    0.9386  -17.0022 H   0  0  0  0  0  0  0  0  0  0  0  0
   -7.1769   -1.7910  -18.5572 H   0  0  0  0  0  0  0  0  0  0  0  0
  1  2  2  0  0  0  0
  2  3  1  0  0  0  0
  2 12  1  0  0  0  0
  3  4  1  0  0  0  0
  3 15  1  0  0  0  0
  3 26  1  0  0  0  0
  4  5  4  0  0  0  0
  4  7  4  0  0  0  0
  5  6  4  0  0  0  0
  5 27  1  0  0  0  0
  6 10  4  0  0  0  0
  6 28  1  0  0  0  0
  7  8  4  0  0  0  0
  7 29  1  0  0  0  0
  8  9  1  0  0  0  0
  8 10  4  0  0  0  0
 10 11  1  0  0  0  0
 12 13  1  0  0  0  0
 12 16  1  0  0  0  0
 13 14  1  0  0  0  0
 13 30  1  0  0  0  0
 13 31  1  0  0  0  0
 14 15  1  0  0  0  0
 14 32  1  0  0  0  0
 14 33  1  0  0  0  0
 15 34  1  0  0  0  0
 15 35  1  0  0  0  0
 16 17  4  0  0  0  0
 16 25  4  0  0  0  0
 17 18  4  0  0  0  0
 17 22  4  0  0  0  0
 18 19  4  0  0  0  0
 18 36  1  0  0  0  0
 19 20  4  0  0  0  0
 19 37  1  0  0  0  0
 20 21  4  0  0  0  0
 20 38  1  0  0  0  0
 21 22  4  0  0  0  0
 21 39  1  0  0  0  0
 22 23  4  0  0  0  0
 23 24  4  0  0  0  0
 23 40  1  0  0  0  0
 24 25  4  0  0  0  0
 25 41  1  0  0  0  0
M  END
$$$$
