LIG(A-306)
     RDKit          3D

 25 28  0  0  1  0  0  0  0  0999 V2000
   -8.9581    0.3015  -21.2301 O   0  0  0  0  0  0  0  0  0  0  0  0
   -8.4711   -0.8009  -21.4299 C   0  0  0  0  0  0  0  0  0  0  0  0
   -9.2536   -1.9065  -22.1202 C   0  0  1  0  0  0  0  0  0  0  0  0
  -10.6301   -1.4746  -22.5982 C   0  0  0  0  0  0  0  0  0  0  0  0
  -10.7967   -0.4804  -23.5530 C   0  0  0  0  0  0  0  0  0  0  0  0
  -12.0595   -0.0559  -23.9177 C   0  0  0  0  0  0  0  0  0  0  0  0
  -11.7559   -2.0704  -22.0449 C   0  0  0  0  0  0  0  0  0  0  0  0
  -13.0193   -1.6603  -22.4203 C   0  0  0  0  0  0  0  0  0  0  0  0
  -14.3967   -2.4739  -21.7513 Cl  0  0  0  0  0  0  0  0  0  0  0  0
  -13.1745   -0.6378  -23.3420 C   0  0  0  0  0  0  0  0  0  0  0  0
  -14.7414   -0.0325  -23.7485 Cl  0  0  0  0  0  0  0  0  0  0  0  0
   -7.2072   -1.1160  -21.0167 N   0  0  0  0  0  0  0  0  0  0  0  0
   -6.3431   -2.1123  -21.6829 C   0  0  0  0  0  0  0  0  0  0  0  0
   -7.1159   -3.1648  -22.4788 C   0  0  0  0  0  0  0  0  0  0  0  0
   -8.3573   -2.5863  -23.1556 C   0  0  0  0  0  0  0  0  0  0  0  0
   -6.5648   -0.3318  -20.0072 C   0  0  0  0  0  0  0  0  0  0  0  0
   -5.5395    0.6277  -20.2701 C   0  0  0  0  0  0  0  0  0  0  0  0
   -5.0552    0.9450  -21.5677 C   0  0  0  0  0  0  0  0  0  0  0  0
   -4.0680    1.8727  -21.7441 C   0  0  0  0  0  0  0  0  0  0  0  0
   -3.5115    2.5258  -20.6569 C   0  0  0  0  0  0  0  0  0  0  0  0
   -3.9446    2.2622  -19.3895 C   0  0  0  0  0  0  0  0  0  0  0  0
   -4.9741    1.3157  -19.1608 C   0  0  0  0  0  0  0  0  0  0  0  0
   -5.4857    1.0241  -17.8713 C   0  0  0  0  0  0  0  0  0  0  0  0
   -6.4521    0.1507  -17.6335 N   0  0  0  0  0  0  0  0  0  0  0  0
   -6.9588   -0.5043  -18.6855 C   0  0  0  0  0  0  0  0  0  0  0  0
  1  2  2  0
  2  3  1  0
  2 12  1  0
  3  4  1  6
  3 15  1  0
  4  5  2  0
  4  7  1  0
  5  6  1  0
  6 10  2  0
  7  8  2  0
  8  9  1  0
  8 10  1  0
 10 11  1  0
 12 13  1  0
 12 16  1  0
 13 14  1  0
 14 15  1  0
 16 17  1  0
 16 25  2  0
 17 18  2  0
 17 22  1  0
 18 19  1  0
 19 20  2  0
 20 21  1  0
 21 22  2  0
 22 23  1  0
 23 24  2  0
 24 25  1  0
M  END
$$$$
