
     RDKit          3D

 43 47  0  0  0  0  0  0  0  0999 V2000
    4.9168   -3.0164   21.8798 O   0  0  0  0  0  0  0  0  0  0  0  0
    5.9869   -2.4949   22.0899 C   0  0  0  0  0  0  0  0  0  0  0  0
    6.9539   -2.8454   22.9914 N   0  0  0  0  0  0  0  0  0  0  0  0
    8.0933   -1.9571   23.0059 C   0  0  2  0  0  0  0  0  0  0  0  0
    9.4946   -2.5960   22.8608 C   0  0  0  0  0  0  0  0  0  0  0  0
    9.9277   -1.8341   24.1160 C   0  0  2  0  0  0  0  0  0  0  0  0
   11.1904   -1.0685   24.0454 C   0  0  0  0  0  0  0  0  0  0  0  0
   10.9982   -2.0718   25.0638 C   0  0  0  0  0  0  0  0  0  0  0  0
   10.8226   -4.9184   24.3295 C   0  0  0  0  0  0  0  0  0  0  0  0
   11.9610   -4.5782   23.6733 C   0  0  0  0  0  0  0  0  0  0  0  0
   12.5718   -3.3508   23.5282 C   0  0  0  0  0  0  0  0  0  0  0  0
   12.2463   -2.1269   24.2917 C   0  0  0  0  0  0  0  0  0  0  0  0
   13.7558   -1.4261   24.9654 Cl  0  0  0  0  0  0  0  0  0  0  0  0
    8.5166   -1.2746   24.3306 C   0  0  0  0  0  0  0  0  0  0  0  0
    7.7412   -0.9643   21.9177 C   0  0  0  0  0  0  0  0  0  0  0  0
    8.4114   -0.0333   21.5419 O   0  0  0  0  0  0  0  0  0  0  0  0
    6.4881   -1.3478   21.4384 N   0  0  0  0  0  0  0  0  0  0  0  0
    5.8427   -0.7700   20.3170 C   0  0  0  0  0  0  0  0  0  0  0  0
    6.3355   -0.9922   19.0587 C   0  0  0  0  0  0  0  0  0  0  0  0
    5.7290   -0.5801   17.9180 N   0  0  0  0  0  0  0  0  0  0  0  0
    4.6210    0.1135   18.0486 C   0  0  0  0  0  0  0  0  0  0  0  0
    4.0211    0.4416   19.2995 C   0  0  0  0  0  0  0  0  0  0  0  0
    2.8201    1.1930   19.3919 C   0  0  0  0  0  0  0  0  0  0  0  0
    2.2816    1.4894   20.6130 C   0  0  0  0  0  0  0  0  0  0  0  0
    2.9113    1.0479   21.7981 C   0  0  0  0  0  0  0  0  0  0  0  0
    4.0713    0.3190   21.7405 C   0  0  0  0  0  0  0  0  0  0  0  0
    4.6497   -0.0061   20.4815 C   0  0  0  0  0  0  0  0  0  0  0  0
    6.8444   -3.6269   23.6132 H   0  0  0  0  0  0  0  0  0  0  0  0
    9.4724   -3.6901   22.8915 H   0  0  0  0  0  0  0  0  0  0  0  0
   10.0952   -2.2713   22.0050 H   0  0  0  0  0  0  0  0  0  0  0  0
   11.3425   -0.0245   23.7631 H   0  0  0  0  0  0  0  0  0  0  0  0
   10.2550   -4.1801   24.8581 H   0  0  0  0  0  0  0  0  0  0  0  0
   10.4092   -5.9199   24.3181 H   0  0  0  0  0  0  0  0  0  0  0  0
   12.5197   -5.4133   23.2408 H   0  0  0  0  0  0  0  0  0  0  0  0
   13.4953   -3.3045   22.9681 H   0  0  0  0  0  0  0  0  0  0  0  0
    7.9947   -1.6522   25.2161 H   0  0  0  0  0  0  0  0  0  0  0  0
    8.4402   -0.1867   24.2896 H   0  0  0  0  0  0  0  0  0  0  0  0
    7.2523   -1.5621   18.9277 H   0  0  0  0  0  0  0  0  0  0  0  0
    4.1395    0.4555   17.1315 H   0  0  0  0  0  0  0  0  0  0  0  0
    2.3512    1.5274   18.4725 H   0  0  0  0  0  0  0  0  0  0  0  0
    1.3675    2.0722   20.6850 H   0  0  0  0  0  0  0  0  0  0  0  0
    2.4740    1.2891   22.7617 H   0  0  0  0  0  0  0  0  0  0  0  0
    4.5573   -0.0064   22.6563 H   0  0  0  0  0  0  0  0  0  0  0  0
  1  2  2  0
  2  3  1  0
  4  3  1  1
  4  5  1  0
  5  6  1  0
  6  7  1  0
  7  8  2  0
  8  9  1  0
  9 10  2  0
 10 11  1  0
 11 12  2  0
 12 13  1  0
  6 14  1  0
  4 15  1  0
 15 16  2  0
 15 17  1  0
 17 18  1  0
 18 19  2  0
 19 20  1  0
 20 21  2  0
 21 22  1  0
 22 23  2  0
 23 24  1  0
 24 25  2  0
 25 26  1  0
 26 27  2  0
 17  2  1  0
 27 18  1  0
 14  4  1  0
 27 22  1  0
 12  7  1  0
  3 28  1  0
  5 29  1  0
  5 30  1  0
  6 31  1  1
  8 32  1  0
  9 33  1  0
 10 34  1  0
 11 35  1  0
 14 36  1  0
 14 37  1  0
 19 38  1  0
 21 39  1  0
 23 40  1  0
 24 41  1  0
 25 42  1  0
 26 43  1  0
M  END
