
     RDKit          3D

 66 71  0  0  0  0  0  0  0  0999 V2000
    7.2935    4.6439   22.3573 C   0  0  0  0  0  0  0  0  0  0  0  0
    8.0547    3.6907   23.1306 N   0  0  0  0  0  0  0  0  0  0  0  0
    7.8202    3.5828   24.4536 C   0  0  0  0  0  0  0  0  0  0  0  0
    7.0524    4.3098   25.0682 O   0  0  0  0  0  0  0  0  0  0  0  0
    8.5544    2.4751   25.2265 C   0  0  0  0  0  0  0  0  0  0  0  0
    9.3779    1.5705   24.4558 N   0  0  0  0  0  0  0  0  0  0  0  0
    8.9312    0.2040   24.2145 C   0  0  0  0  0  0  0  0  0  0  0  0
    9.4917   -0.3445   22.8679 C   0  0  2  0  0  0  0  0  0  0  0  0
    8.8326    0.4751   21.7212 C   0  0  0  0  0  0  0  0  0  0  0  0
    9.0626    1.6301   21.4157 O   0  0  0  0  0  0  0  0  0  0  0  0
    7.8698   -0.3008   21.1241 N   0  0  0  0  0  0  0  0  0  0  0  0
    6.9976    0.1762   20.1034 C   0  0  0  0  0  0  0  0  0  0  0  0
    7.1982   -0.2104   18.8005 C   0  0  0  0  0  0  0  0  0  0  0  0
    6.3887    0.1212   17.7649 N   0  0  0  0  0  0  0  0  0  0  0  0
    5.3432    0.8668   18.0238 C   0  0  0  0  0  0  0  0  0  0  0  0
    5.0290    1.3622   19.3200 C   0  0  0  0  0  0  0  0  0  0  0  0
    3.9192    2.2208   19.5373 C   0  0  0  0  0  0  0  0  0  0  0  0
    3.6105    2.6482   20.7974 C   0  0  0  0  0  0  0  0  0  0  0  0
    4.3840    2.2229   21.9006 C   0  0  0  0  0  0  0  0  0  0  0  0
    5.4817    1.4169   21.7149 C   0  0  0  0  0  0  0  0  0  0  0  0
    5.8526    0.9829   20.4096 C   0  0  0  0  0  0  0  0  0  0  0  0
    7.6565   -1.5652   21.8067 C   0  0  0  0  0  0  0  0  0  0  0  0
    9.0030   -1.7708   22.5024 C   0  0  2  0  0  0  0  0  0  0  0  0
    9.0144   -2.7779   23.6604 C   0  0  0  0  0  0  0  0  0  0  0  0
    8.7875   -4.1485   23.2521 N   0  0  0  0  0  0  0  0  0  0  0  0
    7.5205   -4.6582   23.2000 C   0  0  0  0  0  0  0  0  0  0  0  0
    7.2533   -5.8783   22.5360 C   0  0  0  0  0  0  0  0  0  0  0  0
    6.0408   -6.3908   22.4487 N   0  0  0  0  0  0  0  0  0  0  0  0
    5.0508   -5.7079   23.0523 C   0  0  0  0  0  0  0  0  0  0  0  0
    5.3182   -4.5346   23.7389 C   0  0  0  0  0  0  0  0  0  0  0  0
    6.5415   -3.9932   23.8080 N   0  0  0  0  0  0  0  0  0  0  0  0
   11.0000   -0.1844   22.9386 C   0  0  0  0  0  0  0  0  0  0  0  0
   11.9105   -1.1482   22.4823 C   0  0  0  0  0  0  0  0  0  0  0  0
   13.2581   -0.8415   22.4128 C   0  0  0  0  0  0  0  0  0  0  0  0
   14.3519   -1.9844   21.6835 Cl  0  0  0  0  0  0  0  0  0  0  0  0
   13.7624    0.3742   22.8745 C   0  0  0  0  0  0  0  0  0  0  0  0
   12.8812    1.2958   23.4014 C   0  0  0  0  0  0  0  0  0  0  0  0
   11.5189    1.0096   23.4587 C   0  0  0  0  0  0  0  0  0  0  0  0
   10.6232    2.0160   24.1075 C   0  0  0  0  0  0  0  0  0  0  0  0
   10.9848    3.1656   24.3120 O   0  0  0  0  0  0  0  0  0  0  0  0
    7.4124    4.3967   21.2982 H   0  0  0  0  0  0  0  0  0  0  0  0
    6.2415    4.5685   22.6456 H   0  0  0  0  0  0  0  0  0  0  0  0
    7.6154    5.6780   22.5287 H   0  0  0  0  0  0  0  0  0  0  0  0
    8.5888    2.9920   22.6225 H   0  0  0  0  0  0  0  0  0  0  0  0
    9.1687    2.9670   25.9911 H   0  0  0  0  0  0  0  0  0  0  0  0
    7.7885    1.8972   25.7557 H   0  0  0  0  0  0  0  0  0  0  0  0
    7.8348    0.2141   24.1953 H   0  0  0  0  0  0  0  0  0  0  0  0
    9.2534   -0.4391   25.0458 H   0  0  0  0  0  0  0  0  0  0  0  0
    8.0555   -0.8325   18.5477 H   0  0  0  0  0  0  0  0  0  0  0  0
    4.6905    1.1327   17.1906 H   0  0  0  0  0  0  0  0  0  0  0  0
    3.3379    2.5426   18.6763 H   0  0  0  0  0  0  0  0  0  0  0  0
    2.7714    3.3185   20.9612 H   0  0  0  0  0  0  0  0  0  0  0  0
    4.1245    2.5606   22.9016 H   0  0  0  0  0  0  0  0  0  0  0  0
    6.0730    1.1130   22.5755 H   0  0  0  0  0  0  0  0  0  0  0  0
    7.4275   -2.3492   21.0848 H   0  0  0  0  0  0  0  0  0  0  0  0
    6.8293   -1.5185   22.5326 H   0  0  0  0  0  0  0  0  0  0  0  0
    9.6659   -2.1116   21.6974 H   0  0  0  0  0  0  0  0  0  0  0  0
    9.9729   -2.7024   24.1921 H   0  0  0  0  0  0  0  0  0  0  0  0
    8.2172   -2.5209   24.3669 H   0  0  0  0  0  0  0  0  0  0  0  0
    9.4787   -4.6013   22.6707 H   0  0  0  0  0  0  0  0  0  0  0  0
    8.0732   -6.4275   22.0836 H   0  0  0  0  0  0  0  0  0  0  0  0
    4.0364   -6.1059   22.9671 H   0  0  0  0  0  0  0  0  0  0  0  0
    4.5336   -3.9861   24.2588 H   0  0  0  0  0  0  0  0  0  0  0  0
   11.5918   -2.1304   22.1510 H   0  0  0  0  0  0  0  0  0  0  0  0
   14.8235    0.5882   22.8075 H   0  0  0  0  0  0  0  0  0  0  0  0
   13.2232    2.2495   23.7901 H   0  0  0  0  0  0  0  0  0  0  0  0
  1  2  1  0
  2  3  1  0
  3  4  2  0
  3  5  1  0
  5  6  1  0
  6  7  1  0
  8  7  1  1
  8  9  1  0
  9 10  2  0
  9 11  1  0
 11 12  1  0
 12 13  2  0
 13 14  1  0
 14 15  2  0
 15 16  1  0
 16 17  2  0
 17 18  1  0
 18 19  2  0
 19 20  1  0
 20 21  2  0
 11 22  1  0
 22 23  1  0
 23 24  1  0
 24 25  1  0
 25 26  1  0
 26 27  2  0
 27 28  1  0
 28 29  2  0
 29 30  1  0
 30 31  2  0
  8 32  1  0
 32 33  2  0
 33 34  1  0
 34 35  1  0
 34 36  2  0
 36 37  1  0
 37 38  2  0
 38 39  1  0
 39 40  2  0
 39  6  1  0
 23  8  1  0
 31 26  1  0
 38 32  1  0
 21 12  1  0
 21 16  1  0
  1 41  1  0
  1 42  1  0
  1 43  1  0
  2 44  1  0
  5 45  1  0
  5 46  1  0
  7 47  1  0
  7 48  1  0
 13 49  1  0
 15 50  1  0
 17 51  1  0
 18 52  1  0
 19 53  1  0
 20 54  1  0
 22 55  1  0
 22 56  1  0
 23 57  1  6
 24 58  1  0
 24 59  1  0
 25 60  1  0
 27 61  1  0
 29 62  1  0
 30 63  1  0
 33 64  1  0
 36 65  1  0
 37 66  1  0
M  END
$$$$
