
     RDKit          3D

 43 45  0  0  0  0  0  0  0  0999 V2000
   14.2148   -1.6506   22.1082 C   0  0  0  0  0  0  0  0  0  0  0  0
   12.8869   -1.4120   22.8336 C   0  0  0  0  0  0  0  0  0  0  0  0
   13.0506   -1.8052   24.3071 C   0  0  0  0  0  0  0  0  0  0  0  0
   12.5628    0.0954   22.7436 C   0  0  0  0  0  0  0  0  0  0  0  0
   11.1397    0.4272   23.1803 C   0  0  0  0  0  0  0  0  0  0  0  0
   10.1762   -0.4186   22.4862 N   0  0  0  0  0  0  0  0  0  0  0  0
    9.2035    0.1927   21.7321 C   0  0  0  0  0  0  0  0  0  0  0  0
    9.2678    1.3733   21.4415 O   0  0  0  0  0  0  0  0  0  0  0  0
    7.9942   -0.6631   21.3337 C   0  0  0  0  0  0  0  0  0  0  0  0
    7.1411   -0.0884   20.2360 C   0  0  0  0  0  0  0  0  0  0  0  0
    7.4662   -0.3624   18.9337 C   0  0  0  0  0  0  0  0  0  0  0  0
    6.7372    0.0071   17.8484 N   0  0  0  0  0  0  0  0  0  0  0  0
    5.6416    0.6919   18.0662 C   0  0  0  0  0  0  0  0  0  0  0  0
    5.2237    1.1241   19.3545 C   0  0  0  0  0  0  0  0  0  0  0  0
    4.0925    1.9614   19.5362 C   0  0  0  0  0  0  0  0  0  0  0  0
    3.6592    2.2759   20.7963 C   0  0  0  0  0  0  0  0  0  0  0  0
    4.3761    1.8164   21.9290 C   0  0  0  0  0  0  0  0  0  0  0  0
    5.5045    1.0482   21.7762 C   0  0  0  0  0  0  0  0  0  0  0  0
    5.9700    0.6917   20.4813 C   0  0  0  0  0  0  0  0  0  0  0  0
   10.3657   -1.8505   22.6583 C   0  0  0  0  0  0  0  0  0  0  0  0
   11.7705   -2.3006   22.2406 C   0  0  0  0  0  0  0  0  0  0  0  0
   14.9933   -1.0180   22.5533 H   0  0  0  0  0  0  0  0  0  0  0  0
   14.5412   -2.6947   22.1793 H   0  0  0  0  0  0  0  0  0  0  0  0
   14.1467   -1.3998   21.0436 H   0  0  0  0  0  0  0  0  0  0  0  0
   13.3288   -2.8642   24.3807 H   0  0  0  0  0  0  0  0  0  0  0  0
   13.8301   -1.2030   24.7885 H   0  0  0  0  0  0  0  0  0  0  0  0
   12.1194   -1.6685   24.8668 H   0  0  0  0  0  0  0  0  0  0  0  0
   12.7102    0.4446   21.7199 H   0  0  0  0  0  0  0  0  0  0  0  0
   13.2891    0.6450   23.3585 H   0  0  0  0  0  0  0  0  0  0  0  0
   10.8637    1.4560   22.9471 H   0  0  0  0  0  0  0  0  0  0  0  0
   11.0353    0.2928   24.2667 H   0  0  0  0  0  0  0  0  0  0  0  0
    8.3426   -1.6462   21.0038 H   0  0  0  0  0  0  0  0  0  0  0  0
    7.4235   -0.8305   22.2559 H   0  0  0  0  0  0  0  0  0  0  0  0
    8.3758   -0.9242   18.7120 H   0  0  0  0  0  0  0  0  0  0  0  0
    5.0606    1.0016   17.1936 H   0  0  0  0  0  0  0  0  0  0  0  0
    3.5922    2.3462   18.6482 H   0  0  0  0  0  0  0  0  0  0  0  0
    2.7722    2.8921   20.9243 H   0  0  0  0  0  0  0  0  0  0  0  0
    4.0276    2.0636   22.9305 H   0  0  0  0  0  0  0  0  0  0  0  0
    6.0630    0.7053   22.6470 H   0  0  0  0  0  0  0  0  0  0  0  0
   10.1964   -2.1331   23.7074 H   0  0  0  0  0  0  0  0  0  0  0  0
    9.6222   -2.3827   22.0666 H   0  0  0  0  0  0  0  0  0  0  0  0
   11.8297   -2.3709   21.1519 H   0  0  0  0  0  0  0  0  0  0  0  0
   11.9374   -3.3277   22.5869 H   0  0  0  0  0  0  0  0  0  0  0  0
  1  2  1  0
  2  3  1  0
  2  4  1  0
  4  5  1  0
  5  6  1  0
  6  7  1  0
  7  8  2  0
  7  9  1  0
  9 10  1  0
 10 11  2  0
 11 12  1  0
 12 13  2  0
 13 14  1  0
 14 15  2  0
 15 16  1  0
 16 17  2  0
 17 18  1  0
 18 19  2  0
  6 20  1  0
 20 21  1  0
 21  2  1  0
 19 10  1  0
 19 14  1  0
  1 22  1  0
  1 23  1  0
  1 24  1  0
  3 25  1  0
  3 26  1  0
  3 27  1  0
  4 28  1  0
  4 29  1  0
  5 30  1  0
  5 31  1  0
  9 32  1  0
  9 33  1  0
 11 34  1  0
 13 35  1  0
 15 36  1  0
 16 37  1  0
 17 38  1  0
 18 39  1  0
 20 40  1  0
 20 41  1  0
 21 42  1  0
 21 43  1  0
M  END
$$$$
