
     RDKit          3D

 44 47  0  0  0  0  0  0  0  0999 V2000
   13.2074   -2.3690   24.0639 C   0  0  0  0  0  0  0  0  0  0  0  0
   12.8064   -1.3340   23.0233 C   0  0  0  0  0  0  0  0  0  0  0  0
   11.3675   -0.4106   23.5544 S   0  0  0  0  0  0  0  0  0  0  0  0
   10.9501    0.5023   22.5143 O   0  0  0  0  0  0  0  0  0  0  0  0
   11.7247    0.1634   24.8272 O   0  0  0  0  0  0  0  0  0  0  0  0
   10.1892   -1.5954   23.8281 N   0  0  0  0  0  0  0  0  0  0  0  0
    9.6609   -2.4215   22.7154 C   0  0  0  0  0  0  0  0  0  0  0  0
    8.2406   -1.8580   22.9698 C   0  0  0  0  0  0  0  0  0  0  0  0
    8.8276   -1.1088   24.1853 C   0  0  0  0  0  0  0  0  0  0  0  0
    7.7785   -0.9075   21.8815 C   0  0  0  0  0  0  0  0  0  0  0  0
    8.3466    0.0612   21.4599 O   0  0  0  0  0  0  0  0  0  0  0  0
    6.5366   -1.3787   21.4520 N   0  0  0  0  0  0  0  0  0  0  0  0
    5.8185   -0.8295   20.3529 C   0  0  0  0  0  0  0  0  0  0  0  0
    6.2656   -1.0760   19.0810 C   0  0  0  0  0  0  0  0  0  0  0  0
    5.6755   -0.6180   17.9482 N   0  0  0  0  0  0  0  0  0  0  0  0
    4.6163    0.1404   18.1020 C   0  0  0  0  0  0  0  0  0  0  0  0
    4.0473    0.4784   19.3631 C   0  0  0  0  0  0  0  0  0  0  0  0
    2.9020    1.3108   19.4473 C   0  0  0  0  0  0  0  0  0  0  0  0
    2.3678    1.6329   20.6628 C   0  0  0  0  0  0  0  0  0  0  0  0
    2.9622    1.1440   21.8496 C   0  0  0  0  0  0  0  0  0  0  0  0
    4.0813    0.3450   21.7975 C   0  0  0  0  0  0  0  0  0  0  0  0
    4.6532   -0.0156   20.5407 C   0  0  0  0  0  0  0  0  0  0  0  0
    6.1377   -2.5238   22.1623 C   0  0  0  0  0  0  0  0  0  0  0  0
    5.1373   -3.1702   21.9642 O   0  0  0  0  0  0  0  0  0  0  0  0
    7.1154   -2.7436   23.0990 N   0  0  0  0  0  0  0  0  0  0  0  0
    7.0373   -3.8297   24.0471 C   0  0  0  0  0  0  0  0  0  0  0  0
   12.4620   -3.1691   24.0731 H   0  0  0  0  0  0  0  0  0  0  0  0
   14.1794   -2.8131   23.8245 H   0  0  0  0  0  0  0  0  0  0  0  0
   13.2428   -1.9309   25.0671 H   0  0  0  0  0  0  0  0  0  0  0  0
   13.5513   -0.5425   22.8949 H   0  0  0  0  0  0  0  0  0  0  0  0
   12.6353   -1.7686   22.0357 H   0  0  0  0  0  0  0  0  0  0  0  0
   10.0496   -2.1769   21.7281 H   0  0  0  0  0  0  0  0  0  0  0  0
    9.7739   -3.4937   22.9079 H   0  0  0  0  0  0  0  0  0  0  0  0
    8.7136   -0.0278   24.1050 H   0  0  0  0  0  0  0  0  0  0  0  0
    8.5055   -1.4517   25.1712 H   0  0  0  0  0  0  0  0  0  0  0  0
    7.1577   -1.6817   18.9449 H   0  0  0  0  0  0  0  0  0  0  0  0
    4.1531    0.5456   17.2016 H   0  0  0  0  0  0  0  0  0  0  0  0
    2.4830    1.6840   18.5177 H   0  0  0  0  0  0  0  0  0  0  0  0
    1.4926    2.2757   20.7298 H   0  0  0  0  0  0  0  0  0  0  0  0
    2.5280    1.4179   22.8088 H   0  0  0  0  0  0  0  0  0  0  0  0
    4.5377    0.0017   22.7217 H   0  0  0  0  0  0  0  0  0  0  0  0
    6.9508   -4.7869   23.5235 H   0  0  0  0  0  0  0  0  0  0  0  0
    7.9408   -3.8344   24.6620 H   0  0  0  0  0  0  0  0  0  0  0  0
    6.1644   -3.7118   24.6981 H   0  0  0  0  0  0  0  0  0  0  0  0
  1  2  1  0
  2  3  1  0
  3  4  2  0
  3  5  2  0
  3  6  1  0
  6  7  1  0
  7  8  1  0
  8  9  1  0
  8 10  1  0
 10 11  2  0
 10 12  1  0
 12 13  1  0
 13 14  2  0
 14 15  1  0
 15 16  2  0
 16 17  1  0
 17 18  2  0
 18 19  1  0
 19 20  2  0
 20 21  1  0
 21 22  2  0
 12 23  1  0
 23 24  2  0
 23 25  1  0
 25 26  1  0
  9  6  1  0
 22 13  1  0
 25  8  1  0
 22 17  1  0
  1 27  1  0
  1 28  1  0
  1 29  1  0
  2 30  1  0
  2 31  1  0
  7 32  1  0
  7 33  1  0
  9 34  1  0
  9 35  1  0
 14 36  1  0
 16 37  1  0
 18 38  1  0
 19 39  1  0
 20 40  1  0
 21 41  1  0
 26 42  1  0
 26 43  1  0
 26 44  1  0
M  END
