
     RDKit          3D

 44 47  0  0  0  0  0  0  0  0999 V2000
  -13.8013   -1.5868  -23.5972 C   0  0  0  0  0  0  0  0  0  0  0  0
  -13.3722   -0.5529  -22.5667 C   0  0  0  0  0  0  0  0  0  0  0  0
  -11.9543    0.3779  -23.1399 S   0  0  0  0  0  0  0  0  0  0  0  0
  -11.5084    1.2897  -22.1108 O   0  0  0  0  0  0  0  0  0  0  0  0
  -12.3534    0.9537  -24.3993 O   0  0  0  0  0  0  0  0  0  0  0  0
  -10.7804   -0.8014  -23.4535 N   0  0  0  0  0  0  0  0  0  0  0  0
  -10.2143   -1.6282  -22.3601 C   0  0  0  0  0  0  0  0  0  0  0  0
   -8.8049   -1.0582  -22.6572 C   0  0  0  0  0  0  0  0  0  0  0  0
   -9.4326   -0.3082  -23.8517 C   0  0  0  0  0  0  0  0  0  0  0  0
   -8.3129   -0.1087  -21.5812 C   0  0  0  0  0  0  0  0  0  0  0  0
   -8.8715    0.8565  -21.1394 O   0  0  0  0  0  0  0  0  0  0  0  0
   -7.0563   -0.5759  -21.1919 N   0  0  0  0  0  0  0  0  0  0  0  0
   -6.3065   -0.0267  -20.1143 C   0  0  0  0  0  0  0  0  0  0  0  0
   -6.7127   -0.2784  -18.8297 C   0  0  0  0  0  0  0  0  0  0  0  0
   -6.0893    0.1791  -17.7146 N   0  0  0  0  0  0  0  0  0  0  0  0
   -5.0385    0.9422  -17.8993 C   0  0  0  0  0  0  0  0  0  0  0  0
   -4.5105    1.2859  -19.1766 C   0  0  0  0  0  0  0  0  0  0  0  0
   -3.3718    2.1232  -19.2942 C   0  0  0  0  0  0  0  0  0  0  0  0
   -2.8771    2.4507  -20.5249 C   0  0  0  0  0  0  0  0  0  0  0  0
   -3.5063    1.9625  -21.6939 C   0  0  0  0  0  0  0  0  0  0  0  0
   -4.6200    1.1588  -21.6091 C   0  0  0  0  0  0  0  0  0  0  0  0
   -5.1509    0.7925  -20.3361 C   0  0  0  0  0  0  0  0  0  0  0  0
   -6.6752   -1.7175  -21.9175 C   0  0  0  0  0  0  0  0  0  0  0  0
   -5.6665   -2.3603  -21.7525 O   0  0  0  0  0  0  0  0  0  0  0  0
   -7.6807   -1.9388  -22.8239 N   0  0  0  0  0  0  0  0  0  0  0  0
   -7.6279   -3.0221  -23.7769 C   0  0  0  0  0  0  0  0  0  0  0  0
  -13.0534   -2.3837  -23.6318 H   0  0  0  0  0  0  0  0  0  0  0  0
  -14.7636   -2.0355  -23.3288 H   0  0  0  0  0  0  0  0  0  0  0  0
  -13.8698   -1.1461  -24.5975 H   0  0  0  0  0  0  0  0  0  0  0  0
  -14.1159    0.2352  -22.4129 H   0  0  0  0  0  0  0  0  0  0  0  0
  -13.1686   -0.9894  -21.5861 H   0  0  0  0  0  0  0  0  0  0  0  0
  -10.5730   -1.3878  -21.3605 H   0  0  0  0  0  0  0  0  0  0  0  0
  -10.3289   -2.7004  -22.5520 H   0  0  0  0  0  0  0  0  0  0  0  0
   -9.3205    0.7730  -23.7720 H   0  0  0  0  0  0  0  0  0  0  0  0
   -9.1400   -0.6472  -24.8481 H   0  0  0  0  0  0  0  0  0  0  0  0
   -7.5976   -0.8881  -18.6675 H   0  0  0  0  0  0  0  0  0  0  0  0
   -4.5491    1.3469  -17.0127 H   0  0  0  0  0  0  0  0  0  0  0  0
   -2.9255    2.4957  -18.3771 H   0  0  0  0  0  0  0  0  0  0  0  0
   -2.0070    3.0973  -20.6173 H   0  0  0  0  0  0  0  0  0  0  0  0
   -3.1033    2.2408  -22.6654 H   0  0  0  0  0  0  0  0  0  0  0  0
   -5.1036    0.8161  -22.5196 H   0  0  0  0  0  0  0  0  0  0  0  0
   -7.5212   -3.9803  -23.2590 H   0  0  0  0  0  0  0  0  0  0  0  0
   -8.5501   -3.0289  -24.3634 H   0  0  0  0  0  0  0  0  0  0  0  0
   -6.7762   -2.8989  -24.4545 H   0  0  0  0  0  0  0  0  0  0  0  0
  1  2  1  0
  2  3  1  0
  3  4  2  0
  3  5  2  0
  3  6  1  0
  6  7  1  0
  7  8  1  0
  8  9  1  0
  8 10  1  0
 10 11  2  0
 10 12  1  0
 12 13  1  0
 13 14  2  0
 14 15  1  0
 15 16  2  0
 16 17  1  0
 17 18  2  0
 18 19  1  0
 19 20  2  0
 20 21  1  0
 21 22  2  0
 12 23  1  0
 23 24  2  0
 23 25  1  0
 25 26  1  0
  9  6  1  0
 22 13  1  0
 25  8  1  0
 22 17  1  0
  1 27  1  0
  1 28  1  0
  1 29  1  0
  2 30  1  0
  2 31  1  0
  7 32  1  0
  7 33  1  0
  9 34  1  0
  9 35  1  0
 14 36  1  0
 16 37  1  0
 18 38  1  0
 19 39  1  0
 20 40  1  0
 21 41  1  0
 26 42  1  0
 26 43  1  0
 26 44  1  0
M  END
$$$$
