
     RDKit          3D

 58 63  0  0  0  0  0  0  0  0999 V2000
    4.9943    5.5018   23.1659 C   0  0  0  0  0  0  0  0  0  0  0  0
    6.2042    4.6619   23.4620 C   0  0  0  0  0  0  0  0  0  0  0  0
    6.4151    3.8100   24.5859 C   0  0  0  0  0  0  0  0  0  0  0  0
    7.6557    3.2896   24.3689 C   0  0  0  0  0  0  0  0  0  0  0  0
    8.5429    2.4318   25.2295 C   0  0  0  0  0  0  0  0  0  0  0  0
    9.3947    1.5439   24.4792 N   0  0  0  0  0  0  0  0  0  0  0  0
    8.9378    0.1914   24.2120 C   0  0  0  0  0  0  0  0  0  0  0  0
    9.4927   -0.3416   22.8612 C   0  0  2  0  0  0  0  0  0  0  0  0
    8.8499    0.4744   21.7003 C   0  0  0  0  0  0  0  0  0  0  0  0
    9.1051    1.6069   21.3782 O   0  0  0  0  0  0  0  0  0  0  0  0
    7.8733   -0.3072   21.1077 N   0  0  0  0  0  0  0  0  0  0  0  0
    6.9892    0.1715   20.1028 C   0  0  0  0  0  0  0  0  0  0  0  0
    7.1842   -0.2173   18.7978 C   0  0  0  0  0  0  0  0  0  0  0  0
    6.3634    0.1014   17.7682 N   0  0  0  0  0  0  0  0  0  0  0  0
    5.3225    0.8519   18.0377 C   0  0  0  0  0  0  0  0  0  0  0  0
    5.0179    1.3529   19.3346 C   0  0  0  0  0  0  0  0  0  0  0  0
    3.9265    2.2360   19.5444 C   0  0  0  0  0  0  0  0  0  0  0  0
    3.6395    2.6794   20.8056 C   0  0  0  0  0  0  0  0  0  0  0  0
    4.4119    2.2587   21.9108 C   0  0  0  0  0  0  0  0  0  0  0  0
    5.5010    1.4414   21.7260 C   0  0  0  0  0  0  0  0  0  0  0  0
    5.8492    0.9865   20.4190 C   0  0  0  0  0  0  0  0  0  0  0  0
    7.6442   -1.5555   21.8076 C   0  0  0  0  0  0  0  0  0  0  0  0
    8.9862   -1.7671   22.5199 C   0  0  2  0  0  0  0  0  0  0  0  0
    8.9340   -2.7568   23.6742 C   0  0  0  0  0  0  0  0  0  0  0  0
   11.0038   -0.1888   22.9405 C   0  0  0  0  0  0  0  0  0  0  0  0
   11.9236   -1.1493   22.4941 C   0  0  0  0  0  0  0  0  0  0  0  0
   13.2671   -0.8217   22.4549 C   0  0  0  0  0  0  0  0  0  0  0  0
   14.1345   -1.7186   21.9559 F   0  0  0  0  0  0  0  0  0  0  0  0
   13.7773    0.3963   22.8865 C   0  0  0  0  0  0  0  0  0  0  0  0
   12.8826    1.3086   23.4002 C   0  0  0  0  0  0  0  0  0  0  0  0
   11.5226    1.0060   23.4592 C   0  0  0  0  0  0  0  0  0  0  0  0
   10.6249    2.0076   24.1083 C   0  0  0  0  0  0  0  0  0  0  0  0
   10.9770    3.1646   24.2967 O   0  0  0  0  0  0  0  0  0  0  0  0
    8.1455    3.7572   23.2175 O   0  0  0  0  0  0  0  0  0  0  0  0
    7.2391    4.6261   22.6491 N   0  0  0  0  0  0  0  0  0  0  0  0
    4.7930    5.4961   22.0890 H   0  0  0  0  0  0  0  0  0  0  0  0
    5.1138    6.5445   23.4861 H   0  0  0  0  0  0  0  0  0  0  0  0
    4.1163    5.1048   23.6868 H   0  0  0  0  0  0  0  0  0  0  0  0
    5.7421    3.6119   25.4105 H   0  0  0  0  0  0  0  0  0  0  0  0
    7.9326    1.8434   25.9200 H   0  0  0  0  0  0  0  0  0  0  0  0
    9.1881    3.0737   25.8393 H   0  0  0  0  0  0  0  0  0  0  0  0
    9.2573   -0.4785   25.0215 H   0  0  0  0  0  0  0  0  0  0  0  0
    7.8424    0.2021   24.1936 H   0  0  0  0  0  0  0  0  0  0  0  0
    8.0485   -0.8299   18.5430 H   0  0  0  0  0  0  0  0  0  0  0  0
    4.6538    1.1084   17.2175 H   0  0  0  0  0  0  0  0  0  0  0  0
    3.3354    2.5413   18.6847 H   0  0  0  0  0  0  0  0  0  0  0  0
    2.8102    3.3616   20.9608 H   0  0  0  0  0  0  0  0  0  0  0  0
    4.1532    2.5969   22.9120 H   0  0  0  0  0  0  0  0  0  0  0  0
    6.1015    1.1422   22.5796 H   0  0  0  0  0  0  0  0  0  0  0  0
    6.7992   -1.4850   22.5202 H   0  0  0  0  0  0  0  0  0  0  0  0
    7.4160   -2.3421   21.0825 H   0  0  0  0  0  0  0  0  0  0  0  0
    9.6561   -2.1527   21.7410 H   0  0  0  0  0  0  0  0  0  0  0  0
    9.9050   -2.8084   24.1763 H   0  0  0  0  0  0  0  0  0  0  0  0
    8.1915   -2.4482   24.4183 H   0  0  0  0  0  0  0  0  0  0  0  0
    8.6661   -3.7642   23.3362 H   0  0  0  0  0  0  0  0  0  0  0  0
   11.6377   -2.1451   22.1702 H   0  0  0  0  0  0  0  0  0  0  0  0
   14.8439    0.5920   22.8256 H   0  0  0  0  0  0  0  0  0  0  0  0
   13.2073    2.2777   23.7588 H   0  0  0  0  0  0  0  0  0  0  0  0
  1  2  1  0
  2  3  1  0
  3  4  2  0
  4  5  1  0
  5  6  1  0
  6  7  1  0
  8  7  1  1
  8  9  1  0
  9 10  2  0
  9 11  1  0
 11 12  1  0
 12 13  2  0
 13 14  1  0
 14 15  2  0
 15 16  1  0
 16 17  2  0
 17 18  1  0
 18 19  2  0
 19 20  1  0
 20 21  2  0
 11 22  1  0
 22 23  1  0
 23 24  1  0
  8 25  1  0
 25 26  2  0
 26 27  1  0
 27 28  1  0
 27 29  2  0
 29 30  1  0
 30 31  2  0
 31 32  1  0
 32 33  2  0
  4 34  1  0
 34 35  1  0
 35  2  2  0
 32  6  1  0
 23  8  1  0
 31 25  1  0
 21 12  1  0
 21 16  1  0
  1 36  1  0
  1 37  1  0
  1 38  1  0
  3 39  1  0
  5 40  1  0
  5 41  1  0
  7 42  1  0
  7 43  1  0
 13 44  1  0
 15 45  1  0
 17 46  1  0
 18 47  1  0
 19 48  1  0
 20 49  1  0
 22 50  1  0
 22 51  1  0
 23 52  1  6
 24 53  1  0
 24 54  1  0
 24 55  1  0
 26 56  1  0
 29 57  1  0
 30 58  1  0
M  END
$$$$
