
     RDKit          3D

 40 42  0  0  0  0  0  0  0  0999 V2000
   -8.5398   -0.8928  -20.8433 O   0  0  0  0  0  0  0  0  0  0  0  0
   -7.8987   -1.9209  -20.9994 C   0  0  0  0  0  0  0  0  0  0  0  0
   -6.6138   -2.2091  -20.2141 C   0  0  0  0  0  0  0  0  0  0  0  0
   -6.0365   -1.1302  -19.3049 C   0  0  0  0  0  0  0  0  0  0  0  0
   -6.2770   -1.1302  -17.9232 C   0  0  0  0  0  0  0  0  0  0  0  0
   -5.6026   -0.3654  -17.0449 N   0  0  0  0  0  0  0  0  0  0  0  0
   -4.6312    0.4255  -17.5208 C   0  0  0  0  0  0  0  0  0  0  0  0
   -4.3484    0.5407  -18.8837 C   0  0  0  0  0  0  0  0  0  0  0  0
   -3.3367    1.4016  -19.3364 C   0  0  0  0  0  0  0  0  0  0  0  0
   -3.1008    1.5362  -20.7019 C   0  0  0  0  0  0  0  0  0  0  0  0
   -3.8851    0.8267  -21.6146 C   0  0  0  0  0  0  0  0  0  0  0  0
   -4.8730   -0.0604  -21.1707 C   0  0  0  0  0  0  0  0  0  0  0  0
   -5.0995   -0.2218  -19.7973 C   0  0  0  0  0  0  0  0  0  0  0  0
   -8.2914   -2.8595  -21.9426 N   0  0  0  0  0  0  0  0  0  0  0  0
   -9.7170   -3.0203  -22.2331 C   0  0  0  0  0  0  0  0  0  0  0  0
  -10.1956   -1.8325  -23.0653 C   0  0  0  0  0  0  0  0  0  0  0  0
   -9.4037   -1.8087  -24.3861 C   0  0  0  0  0  0  0  0  0  0  0  0
   -9.9040   -0.6986  -25.3294 C   0  0  0  0  0  0  0  0  0  0  0  0
   -9.1406   -0.6941  -26.4569 F   0  0  0  0  0  0  0  0  0  0  0  0
   -9.8120    0.5013  -24.6925 F   0  0  0  0  0  0  0  0  0  0  0  0
  -11.2019   -0.9346  -25.6813 F   0  0  0  0  0  0  0  0  0  0  0  0
   -7.9065   -1.6536  -24.0196 C   0  0  0  0  0  0  0  0  0  0  0  0
   -7.4414   -2.8212  -23.1312 C   0  0  0  0  0  0  0  0  0  0  0  0
   -6.7706   -3.1144  -19.6276 H   0  0  0  0  0  0  0  0  0  0  0  0
   -5.8458   -2.4608  -20.9451 H   0  0  0  0  0  0  0  0  0  0  0  0
   -7.0454   -1.7978  -17.5647 H   0  0  0  0  0  0  0  0  0  0  0  0
   -4.0319    1.0148  -16.8321 H   0  0  0  0  0  0  0  0  0  0  0  0
   -2.7340    1.9743  -18.6378 H   0  0  0  0  0  0  0  0  0  0  0  0
   -2.3257    2.2072  -21.0620 H   0  0  0  0  0  0  0  0  0  0  0  0
   -3.7351    0.9883  -22.6721 H   0  0  0  0  0  0  0  0  0  0  0  0
   -5.4943   -0.5792  -21.8953 H   0  0  0  0  0  0  0  0  0  0  0  0
  -10.2946   -3.1084  -21.3086 H   0  0  0  0  0  0  0  0  0  0  0  0
   -9.8754   -3.9453  -22.7976 H   0  0  0  0  0  0  0  0  0  0  0  0
  -11.2688   -1.9082  -23.2641 H   0  0  0  0  0  0  0  0  0  0  0  0
  -10.0249   -0.9063  -22.5059 H   0  0  0  0  0  0  0  0  0  0  0  0
   -9.5451   -2.7671  -24.9015 H   0  0  0  0  0  0  0  0  0  0  0  0
   -7.2952   -1.6078  -24.9261 H   0  0  0  0  0  0  0  0  0  0  0  0
   -7.7609   -0.7179  -23.4639 H   0  0  0  0  0  0  0  0  0  0  0  0
   -6.3913   -2.6723  -22.8513 H   0  0  0  0  0  0  0  0  0  0  0  0
   -7.5065   -3.7650  -23.6798 H   0  0  0  0  0  0  0  0  0  0  0  0
  1  2  2  0
  2  3  1  0
  3  4  1  0
  4  5  2  0
  5  6  1  0
  6  7  2  0
  7  8  1  0
  8  9  2  0
  9 10  1  0
 10 11  2  0
 11 12  1  0
 12 13  2  0
  2 14  1  0
 14 15  1  0
 15 16  1  0
 16 17  1  0
 17 18  1  0
 18 19  1  0
 18 20  1  0
 18 21  1  0
 17 22  1  0
 22 23  1  0
 13  4  1  0
 23 14  1  0
 13  8  1  0
  3 24  1  0
  3 25  1  0
  5 26  1  0
  7 27  1  0
  9 28  1  0
 10 29  1  0
 11 30  1  0
 12 31  1  0
 15 32  1  0
 15 33  1  0
 16 34  1  0
 16 35  1  0
 17 36  1  0
 22 37  1  0
 22 38  1  0
 23 39  1  0
 23 40  1  0
M  END
