
     RDKit          3D

 38 41  0  0  0  0  0  0  0  0999 V2000
    5.2476   -1.8077   22.1126 O   0  0  0  0  0  0  0  0  0  0  0  0
    6.4226   -1.4887   22.0599 C   0  0  0  0  0  0  0  0  0  0  0  0
    6.8735   -0.4002   21.0573 C   0  0  0  0  0  0  0  0  0  0  0  0
    5.8639   -0.1929   19.9557 C   0  0  0  0  0  0  0  0  0  0  0  0
    6.0352   -0.8148   18.7475 C   0  0  0  0  0  0  0  0  0  0  0  0
    5.2275   -0.6858   17.6634 N   0  0  0  0  0  0  0  0  0  0  0  0
    4.1673    0.0740   17.8028 C   0  0  0  0  0  0  0  0  0  0  0  0
    3.8191    0.7288   19.0167 C   0  0  0  0  0  0  0  0  0  0  0  0
    2.6233    1.4804   19.1484 C   0  0  0  0  0  0  0  0  0  0  0  0
    2.3017    2.0941   20.3270 C   0  0  0  0  0  0  0  0  0  0  0  0
    3.1824    2.0039   21.4259 C   0  0  0  0  0  0  0  0  0  0  0  0
    4.3520    1.2896   21.3236 C   0  0  0  0  0  0  0  0  0  0  0  0
    4.6960    0.6122   20.1218 C   0  0  0  0  0  0  0  0  0  0  0  0
    7.3747   -2.0905   22.8534 N   0  0  0  0  0  0  0  0  0  0  0  0
    7.1130   -3.4195   23.4118 C   0  0  0  0  0  0  0  0  0  0  0  0
    7.4647   -3.4853   24.8957 C   0  0  0  0  0  0  0  0  0  0  0  0
    8.8219   -2.8959   25.1215 C   0  0  0  0  0  0  0  0  0  0  0  0
    9.8220   -3.1966   26.5034 S   0  0  0  0  0  0  0  0  0  0  0  0
   11.0218   -2.1017   25.9189 C   0  0  0  0  0  0  0  0  0  0  0  0
   10.6677   -1.5461   24.7245 C   0  0  0  0  0  0  0  0  0  0  0  0
    9.3966   -2.0100   24.2658 C   0  0  0  0  0  0  0  0  0  0  0  0
    8.7310   -1.5793   22.9849 C   0  0  0  0  0  0  0  0  0  0  0  0
    7.8341   -0.6718   20.5952 H   0  0  0  0  0  0  0  0  0  0  0  0
    7.0300    0.5519   21.5825 H   0  0  0  0  0  0  0  0  0  0  0  0
    6.8816   -1.4816   18.5988 H   0  0  0  0  0  0  0  0  0  0  0  0
    3.5127    0.1840   16.9354 H   0  0  0  0  0  0  0  0  0  0  0  0
    1.9791    1.5941   18.2858 H   0  0  0  0  0  0  0  0  0  0  0  0
    1.3681    2.6439   20.4214 H   0  0  0  0  0  0  0  0  0  0  0  0
    2.9303    2.5136   22.3518 H   0  0  0  0  0  0  0  0  0  0  0  0
    5.0152    1.2375   22.1797 H   0  0  0  0  0  0  0  0  0  0  0  0
    7.7013   -4.1739   22.8712 H   0  0  0  0  0  0  0  0  0  0  0  0
    6.0606   -3.6596   23.2582 H   0  0  0  0  0  0  0  0  0  0  0  0
    6.7244   -2.9201   25.4737 H   0  0  0  0  0  0  0  0  0  0  0  0
    7.4129   -4.5167   25.2585 H   0  0  0  0  0  0  0  0  0  0  0  0
   11.9241   -1.9303   26.4921 H   0  0  0  0  0  0  0  0  0  0  0  0
   11.2908   -0.8317   24.1919 H   0  0  0  0  0  0  0  0  0  0  0  0
    8.7163   -0.4853   22.9723 H   0  0  0  0  0  0  0  0  0  0  0  0
    9.3731   -1.8730   22.1397 H   0  0  0  0  0  0  0  0  0  0  0  0
  1  2  2  0
  2  3  1  0
  3  4  1  0
  4  5  2  0
  5  6  1  0
  6  7  2  0
  7  8  1  0
  8  9  2  0
  9 10  1  0
 10 11  2  0
 11 12  1  0
 12 13  2  0
  2 14  1  0
 14 15  1  0
 15 16  1  0
 16 17  1  0
 17 18  1  0
 18 19  1  0
 19 20  2  0
 20 21  1  0
 21 22  1  0
 13  4  1  0
 22 14  1  0
 13  8  1  0
 21 17  2  0
  3 23  1  0
  3 24  1  0
  5 25  1  0
  7 26  1  0
  9 27  1  0
 10 28  1  0
 11 29  1  0
 12 30  1  0
 15 31  1  0
 15 32  1  0
 16 33  1  0
 16 34  1  0
 19 35  1  0
 20 36  1  0
 22 37  1  0
 22 38  1  0
M  END
$$$$
