
     RDKit          3D

 41 43  0  0  0  0  0  0  0  0999 V2000
    6.9263    4.0133   24.9469 C   0  0  0  0  0  0  0  0  0  0  0  0
    7.4571    2.8838   24.0841 C   0  0  1  0  0  0  0  0  0  0  0  0
    8.4806    3.3830   23.0582 C   0  0  0  0  0  0  0  0  0  0  0  0
    9.3477    2.2692   22.4430 C   0  0  0  0  0  0  0  0  0  0  0  0
    8.6681    0.9848   22.2438 N   0  0  0  0  0  0  0  0  0  0  0  0
    7.8099    0.8874   21.1692 C   0  0  0  0  0  0  0  0  0  0  0  0
    7.8003    1.7440   20.3058 O   0  0  0  0  0  0  0  0  0  0  0  0
    6.8812   -0.3439   21.0551 C   0  0  0  0  0  0  0  0  0  0  0  0
    5.8616   -0.1936   19.9579 C   0  0  0  0  0  0  0  0  0  0  0  0
    6.0435   -0.8075   18.7475 C   0  0  0  0  0  0  0  0  0  0  0  0
    5.2359   -0.6755   17.6613 N   0  0  0  0  0  0  0  0  0  0  0  0
    4.1709    0.0763   17.8027 C   0  0  0  0  0  0  0  0  0  0  0  0
    3.8208    0.7301   19.0160 C   0  0  0  0  0  0  0  0  0  0  0  0
    2.6281    1.4839   19.1481 C   0  0  0  0  0  0  0  0  0  0  0  0
    2.3028    2.0938   20.3279 C   0  0  0  0  0  0  0  0  0  0  0  0
    3.1842    2.0066   21.4259 C   0  0  0  0  0  0  0  0  0  0  0  0
    4.3533    1.2923   21.3224 C   0  0  0  0  0  0  0  0  0  0  0  0
    4.6966    0.6126   20.1218 C   0  0  0  0  0  0  0  0  0  0  0  0
    8.6421    0.0976   23.3917 C   0  0  0  0  0  0  0  0  0  0  0  0
    7.7395    0.5621   24.5418 C   0  0  0  0  0  0  0  0  0  0  0  0
    7.9889    1.8884   24.9534 O   0  0  0  0  0  0  0  0  0  0  0  0
    7.7349    4.4544   25.5386 H   0  0  0  0  0  0  0  0  0  0  0  0
    6.1636    3.6317   25.6320 H   0  0  0  0  0  0  0  0  0  0  0  0
    6.4746    4.7925   24.3228 H   0  0  0  0  0  0  0  0  0  0  0  0
    6.6155    2.4434   23.5290 H   0  0  0  0  0  0  0  0  0  0  0  0
    7.9417    3.9075   22.2599 H   0  0  0  0  0  0  0  0  0  0  0  0
    9.1369    4.1307   23.5280 H   0  0  0  0  0  0  0  0  0  0  0  0
   10.1896    2.0682   23.1090 H   0  0  0  0  0  0  0  0  0  0  0  0
    9.7523    2.6037   21.4858 H   0  0  0  0  0  0  0  0  0  0  0  0
    6.3773   -0.5470   22.0100 H   0  0  0  0  0  0  0  0  0  0  0  0
    7.5113   -1.2167   20.8323 H   0  0  0  0  0  0  0  0  0  0  0  0
    6.8948   -1.4689   18.5909 H   0  0  0  0  0  0  0  0  0  0  0  0
    3.5139    0.1822   16.9356 H   0  0  0  0  0  0  0  0  0  0  0  0
    1.9864    1.5974   18.2845 H   0  0  0  0  0  0  0  0  0  0  0  0
    1.3707    2.6469   20.4215 H   0  0  0  0  0  0  0  0  0  0  0  0
    2.9322    2.5147   22.3524 H   0  0  0  0  0  0  0  0  0  0  0  0
    5.0277    1.2547   22.1734 H   0  0  0  0  0  0  0  0  0  0  0  0
    9.6696    0.0446   23.7692 H   0  0  0  0  0  0  0  0  0  0  0  0
    8.3671   -0.9125   23.0717 H   0  0  0  0  0  0  0  0  0  0  0  0
    6.6802    0.4451   24.2629 H   0  0  0  0  0  0  0  0  0  0  0  0
    7.9146   -0.0680   25.4222 H   0  0  0  0  0  0  0  0  0  0  0  0
  1  2  1  0
  2  3  1  0
  3  4  1  0
  4  5  1  0
  5  6  1  0
  6  7  2  0
  6  8  1  0
  8  9  1  0
  9 10  2  0
 10 11  1  0
 11 12  2  0
 12 13  1  0
 13 14  2  0
 14 15  1  0
 15 16  2  0
 16 17  1  0
 17 18  2  0
  5 19  1  0
 19 20  1  0
 20 21  1  0
 21  2  1  0
 18  9  1  0
 18 13  1  0
  1 22  1  0
  1 23  1  0
  1 24  1  0
  2 25  1  6
  3 26  1  0
  3 27  1  0
  4 28  1  0
  4 29  1  0
  8 30  1  0
  8 31  1  0
 10 32  1  0
 12 33  1  0
 14 34  1  0
 15 35  1  0
 16 36  1  0
 17 37  1  0
 19 38  1  0
 19 39  1  0
 20 40  1  0
 20 41  1  0
M  END
$$$$
